
*** ChampSim Multicore Out-of-Order Simulator ***

Warmup Instructions: 0
Simulation Instructions: 5000000
Number of CPUs: 4
Off-chip DRAM Size: 128 GiB Channels: 1 Width: 64-bit Data Rate: 3200 MT/s

VirtualMemory physical capacity: 8588881920 num_ppages: 2096895
VirtualMemory page size: 4096 log2_page_size: 12

CPU 0 runs traces/403.gcc-17B.champsimtrace.xz
CPU 1 runs traces/403.gcc-17B.champsimtrace.xz
CPU 2 runs traces/403.gcc-17B.champsimtrace.xz
CPU 3 runs traces/403.gcc-17B.champsimtrace.xz
CPU 0 Bimodal branch predictor
Basic BTB sets: 1024 ways: 8 indirect buffer size: 4096 RAS size: 64
CPU 1 Bimodal branch predictor
Basic BTB sets: 1024 ways: 8 indirect buffer size: 4096 RAS size: 64
CPU 2 Bimodal branch predictor
Basic BTB sets: 1024 ways: 8 indirect buffer size: 4096 RAS size: 64
CPU 3 Bimodal branch predictor
Basic BTB sets: 1024 ways: 8 indirect buffer size: 4096 RAS size: 64

Warmup complete CPU 0 instructions: 1 cycles: 82 (Simulation time: 0 hr 0 min 1 sec) 
Warmup complete CPU 1 instructions: 1 cycles: 82 (Simulation time: 0 hr 0 min 1 sec) 
Warmup complete CPU 2 instructions: 1 cycles: 82 (Simulation time: 0 hr 0 min 1 sec) 
Warmup complete CPU 3 instructions: 32 cycles: 82 (Simulation time: 0 hr 0 min 1 sec) 

Finished CPU 1 instructions: 5000000 cycles: 13875430 cumulative IPC: 0.360349 (Simulation time: 0 hr 18 min 33 sec) 
Finished CPU 0 instructions: 5000001 cycles: 13875446 cumulative IPC: 0.360349 (Simulation time: 0 hr 18 min 33 sec) 
Finished CPU 2 instructions: 5000001 cycles: 13875446 cumulative IPC: 0.360349 (Simulation time: 0 hr 18 min 33 sec) 
cpu3_DTLB MSHR empty

cpu2_STLB MSHR empty

cpu0_STLB MSHR empty

cpu3_PTW MSHR empty

cpu2_PTW MSHR empty

cpu1_PTW MSHR empty

cpu0_PTW MSHR empty

cpu3_L1D MSHR empty

cpu2_L1D MSHR empty

cpu1_L1D MSHR empty

cpu0_L1D MSHR empty

DEADLOCK! CPU 3 cycle 14875462
IFETCH_BUFFER empty
ROB head instr_id: 5000002 translated: 2 fetched: 2 scheduled: 2 executed: 1 is_memory: 1 num_reg_dependent: 0 event: 13875462
Load Queue Entry
[LQ] entry: 1 instr_id: 5000002 address: 0 translated: 0 fetched: 0
[LQ] entry: 2 instr_id: 5000008 address: 0 translated: 0 fetched: 0

Store Queue Entry

DEADLOCK! CPU 2 cycle 13875528
IFETCH_BUFFER empty
ROB head instr_id: 5000002 translated: 2 fetched: 2 scheduled: 2 executed: 1 is_memory: 1 num_reg_dependent: 0 event: 13875493
Load Queue Entry
[LQ] entry: 0 instr_id: 5000008 address: 0 translated: 0 fetched: 0
[LQ] entry: 2 instr_id: 5000002 address: 0 translated: 0 fetched: 0

Store Queue Entry

DEADLOCK! CPU 0 cycle 13875528
IFETCH_BUFFER empty
ROB head instr_id: 5000002 translated: 2 fetched: 2 scheduled: 2 executed: 1 is_memory: 1 num_reg_dependent: 0 event: 13875493
Load Queue Entry
[LQ] entry: 0 instr_id: 5000008 address: 0 translated: 0 fetched: 0
[LQ] entry: 2 instr_id: 5000002 address: 0 translated: 0 fetched: 0

Store Queue Entry

cpu3_STLB MSHR empty

DEADLOCK! CPU 1 cycle 13875512
IFETCH_BUFFER empty
ROB head instr_id: 5000001 translated: 2 fetched: 2 scheduled: 2 executed: 2 is_memory: 0 num_reg_dependent: 0 event: 13875510
Load Queue Entry
[LQ] entry: 0 instr_id: 5000002 address: 7d10c145 translated: 2 fetched: 1

Store Queue Entry

cpu3_ITLB MSHR empty

cpu3_L1I MSHR empty

cpu2_DTLB MSHR empty

cpu2_ITLB MSHR empty

cpu2_L1I MSHR empty

cpu1_DTLB MSHR empty

cpu1_ITLB MSHR empty

cpu1_L1I MSHR empty

cpu0_DTLB MSHR empty

cpu0_ITLB MSHR empty

cpu0_L1I MSHR empty

cpu1_STLB MSHR empty





