
*** ChampSim Multicore Out-of-Order Simulator ***

Warmup Instructions: 0
Simulation Instructions: 100000000
Number of CPUs: 4
Off-chip DRAM Size: 8 GiB Channels: 1 Width: 64-bit Data Rate: 3200 MT/s

VirtualMemory physical capacity: 8588881920 num_ppages: 2096895
VirtualMemory page size: 4096 log2_page_size: 12

CPU 0 runs traces/444.namd-426B.champsimtrace.xz
CPU 1 runs traces/444.namd-426B.champsimtrace.xz
CPU 2 runs traces/444.namd-426B.champsimtrace.xz
CPU 3 runs traces/444.namd-426B.champsimtrace.xz
CPU 0 Bimodal branch predictor
Basic BTB sets: 1024 ways: 8 indirect buffer size: 4096 RAS size: 64
CPU 1 Bimodal branch predictor
Basic BTB sets: 1024 ways: 8 indirect buffer size: 4096 RAS size: 64
CPU 2 Bimodal branch predictor
Basic BTB sets: 1024 ways: 8 indirect buffer size: 4096 RAS size: 64
CPU 3 Bimodal branch predictor
Basic BTB sets: 1024 ways: 8 indirect buffer size: 4096 RAS size: 64

Warmup complete CPU 0 instructions: 8 cycles: 54 (Simulation time: 0 hr 0 min 1 sec) 
Warmup complete CPU 1 instructions: 1 cycles: 54 (Simulation time: 0 hr 0 min 1 sec) 
Warmup complete CPU 2 instructions: 1 cycles: 54 (Simulation time: 0 hr 0 min 1 sec) 
Warmup complete CPU 3 instructions: 1 cycles: 54 (Simulation time: 0 hr 0 min 1 sec) 

Heartbeat CPU 1 instructions: 10000001 cycles: 4616865 heartbeat IPC: 2.16597 cumulative IPC: 2.166 (Simulation time: 1 hr 24 min 2 sec) 
Heartbeat CPU 2 instructions: 10000001 cycles: 4616865 heartbeat IPC: 2.16597 cumulative IPC: 2.166 (Simulation time: 1 hr 24 min 2 sec) 
Heartbeat CPU 3 instructions: 10000001 cycles: 4616865 heartbeat IPC: 2.16597 cumulative IPC: 2.166 (Simulation time: 1 hr 24 min 2 sec) 
Heartbeat CPU 0 instructions: 10000001 cycles: 4616868 heartbeat IPC: 2.16597 cumulative IPC: 2.16599 (Simulation time: 1 hr 24 min 2 sec) 
Heartbeat CPU 0 instructions: 20000000 cycles: 9565266 heartbeat IPC: 2.02086 cumulative IPC: 2.09091 (Simulation time: 2 hr 26 min 17 sec) 
Heartbeat CPU 1 instructions: 20000000 cycles: 9565267 heartbeat IPC: 2.02085 cumulative IPC: 2.09091 (Simulation time: 2 hr 26 min 17 sec) 
Heartbeat CPU 2 instructions: 20000000 cycles: 9565267 heartbeat IPC: 2.02085 cumulative IPC: 2.09091 (Simulation time: 2 hr 26 min 17 sec) 
Heartbeat CPU 3 instructions: 20000000 cycles: 9565267 heartbeat IPC: 2.02085 cumulative IPC: 2.09091 (Simulation time: 2 hr 26 min 17 sec) 
Heartbeat CPU 0 instructions: 30000004 cycles: 14610244 heartbeat IPC: 1.98217 cumulative IPC: 2.05336 (Simulation time: 3 hr 46 min 7 sec) 
Heartbeat CPU 2 instructions: 30000001 cycles: 14610245 heartbeat IPC: 1.98217 cumulative IPC: 2.05336 (Simulation time: 3 hr 46 min 24 sec) 
Heartbeat CPU 3 instructions: 30000001 cycles: 14610245 heartbeat IPC: 1.98217 cumulative IPC: 2.05336 (Simulation time: 3 hr 46 min 24 sec) 
Heartbeat CPU 1 instructions: 30000004 cycles: 14610246 heartbeat IPC: 1.98217 cumulative IPC: 2.05336 (Simulation time: 3 hr 46 min 30 sec) 
Heartbeat CPU 0 instructions: 40000001 cycles: 19337001 heartbeat IPC: 2.11561 cumulative IPC: 2.06858 (Simulation time: 5 hr 5 min 10 sec) 
Heartbeat CPU 1 instructions: 40000000 cycles: 19337005 heartbeat IPC: 2.11561 cumulative IPC: 2.06858 (Simulation time: 5 hr 5 min 10 sec) 
Heartbeat CPU 2 instructions: 40000000 cycles: 19337005 heartbeat IPC: 2.11561 cumulative IPC: 2.06858 (Simulation time: 5 hr 5 min 10 sec) 
Heartbeat CPU 3 instructions: 40000000 cycles: 19337005 heartbeat IPC: 2.11561 cumulative IPC: 2.06858 (Simulation time: 5 hr 5 min 10 sec) 
Heartbeat CPU 0 instructions: 50000000 cycles: 23933501 heartbeat IPC: 2.17557 cumulative IPC: 2.08913 (Simulation time: 6 hr 16 min 45 sec) 
Heartbeat CPU 1 instructions: 50000000 cycles: 23933504 heartbeat IPC: 2.17557 cumulative IPC: 2.08913 (Simulation time: 6 hr 16 min 46 sec) 
Heartbeat CPU 2 instructions: 50000000 cycles: 23933504 heartbeat IPC: 2.17557 cumulative IPC: 2.08913 (Simulation time: 6 hr 16 min 46 sec) 
Heartbeat CPU 3 instructions: 50000000 cycles: 23933504 heartbeat IPC: 2.17557 cumulative IPC: 2.08913 (Simulation time: 6 hr 16 min 46 sec) 
Heartbeat CPU 0 instructions: 60000001 cycles: 28683215 heartbeat IPC: 2.10539 cumulative IPC: 2.09182 (Simulation time: 7 hr 32 min 25 sec) 
Heartbeat CPU 1 instructions: 60000001 cycles: 28683217 heartbeat IPC: 2.10539 cumulative IPC: 2.09182 (Simulation time: 7 hr 32 min 25 sec) 
Heartbeat CPU 2 instructions: 60000001 cycles: 28683217 heartbeat IPC: 2.10539 cumulative IPC: 2.09182 (Simulation time: 7 hr 32 min 25 sec) 
Heartbeat CPU 3 instructions: 60000001 cycles: 28683217 heartbeat IPC: 2.10539 cumulative IPC: 2.09182 (Simulation time: 7 hr 32 min 25 sec) 
Heartbeat CPU 0 instructions: 70000004 cycles: 33431935 heartbeat IPC: 2.10583 cumulative IPC: 2.09381 (Simulation time: 8 hr 44 min 31 sec) 
Heartbeat CPU 1 instructions: 70000003 cycles: 33432086 heartbeat IPC: 2.10576 cumulative IPC: 2.0938 (Simulation time: 8 hr 44 min 31 sec) 
Heartbeat CPU 2 instructions: 70000003 cycles: 33432086 heartbeat IPC: 2.10576 cumulative IPC: 2.0938 (Simulation time: 8 hr 44 min 31 sec) 
Heartbeat CPU 3 instructions: 70000003 cycles: 33432086 heartbeat IPC: 2.10576 cumulative IPC: 2.0938 (Simulation time: 8 hr 44 min 31 sec) 
Heartbeat CPU 0 instructions: 80000004 cycles: 38331096 heartbeat IPC: 2.04117 cumulative IPC: 2.08708 (Simulation time: 9 hr 50 min 22 sec) 
Heartbeat CPU 1 instructions: 80000004 cycles: 38331126 heartbeat IPC: 2.04122 cumulative IPC: 2.08708 (Simulation time: 9 hr 50 min 22 sec) 
Heartbeat CPU 2 instructions: 80000004 cycles: 38331126 heartbeat IPC: 2.04122 cumulative IPC: 2.08708 (Simulation time: 9 hr 50 min 22 sec) 
Heartbeat CPU 3 instructions: 80000004 cycles: 38331126 heartbeat IPC: 2.04122 cumulative IPC: 2.08708 (Simulation time: 9 hr 50 min 22 sec) 
Heartbeat CPU 0 instructions: 90000000 cycles: 43405143 heartbeat IPC: 1.97081 cumulative IPC: 2.07349 (Simulation time: 10 hr 54 min 12 sec) 
Heartbeat CPU 1 instructions: 90000000 cycles: 43405144 heartbeat IPC: 1.97082 cumulative IPC: 2.07349 (Simulation time: 10 hr 54 min 12 sec) 
Heartbeat CPU 2 instructions: 90000000 cycles: 43405144 heartbeat IPC: 1.97082 cumulative IPC: 2.07349 (Simulation time: 10 hr 54 min 12 sec) 
Heartbeat CPU 3 instructions: 90000000 cycles: 43405144 heartbeat IPC: 1.97082 cumulative IPC: 2.07349 (Simulation time: 10 hr 54 min 12 sec) 
Heartbeat CPU 0 instructions: 100000002 cycles: 47770239 heartbeat IPC: 2.2909 cumulative IPC: 2.09336 (Simulation time: 11 hr 54 min 21 sec) 
Finished CPU 0 instructions: 100000004 cycles: 47770187 cumulative IPC: 2.09336 (Simulation time: 11 hr 54 min 21 sec) 
Heartbeat CPU 1 instructions: 100000001 cycles: 47770347 heartbeat IPC: 2.29084 cumulative IPC: 2.09335 (Simulation time: 11 hr 54 min 21 sec) 
Finished CPU 1 instructions: 100000000 cycles: 47770293 cumulative IPC: 2.09335 (Simulation time: 11 hr 54 min 21 sec) 
Heartbeat CPU 2 instructions: 100000001 cycles: 47770347 heartbeat IPC: 2.29084 cumulative IPC: 2.09335 (Simulation time: 11 hr 54 min 21 sec) 
Finished CPU 2 instructions: 100000000 cycles: 47770293 cumulative IPC: 2.09335 (Simulation time: 11 hr 54 min 21 sec) 
Heartbeat CPU 3 instructions: 100000001 cycles: 47770347 heartbeat IPC: 2.29084 cumulative IPC: 2.09335 (Simulation time: 11 hr 54 min 21 sec) 
Finished CPU 3 instructions: 100000000 cycles: 47770293 cumulative IPC: 2.09335 (Simulation time: 11 hr 54 min 21 sec) 

ChampSim completed all CPUs

Total Simulation Statistics (not including warmup)

CPU 0 cumulative IPC: 1.83516e-318 instructions: 100000004 cycles: 47770187
