
*** ChampSim Multicore Out-of-Order Simulator ***

Warmup Instructions: 0
Simulation Instructions: 100000000
Number of CPUs: 4
Off-chip DRAM Size: 128 GiB Channels: 1 Width: 64-bit Data Rate: 3200 MT/s

VirtualMemory physical capacity: 8588881920 num_ppages: 2096895
VirtualMemory page size: 4096 log2_page_size: 12

CPU 0 runs traces/444.namd-33B.champsimtrace.xz
CPU 1 runs traces/444.namd-33B.champsimtrace.xz
CPU 2 runs traces/444.namd-33B.champsimtrace.xz
CPU 3 runs traces/444.namd-33B.champsimtrace.xz
CPU 0 Bimodal branch predictor
Basic BTB sets: 1024 ways: 8 indirect buffer size: 4096 RAS size: 64
CPU 1 Bimodal branch predictor
Basic BTB sets: 1024 ways: 8 indirect buffer size: 4096 RAS size: 64
CPU 2 Bimodal branch predictor
Basic BTB sets: 1024 ways: 8 indirect buffer size: 4096 RAS size: 64
CPU 3 Bimodal branch predictor
Basic BTB sets: 1024 ways: 8 indirect buffer size: 4096 RAS size: 64

Warmup complete CPU 0 instructions: 4 cycles: 36 (Simulation time: 0 hr 0 min 2 sec) 
Warmup complete CPU 1 instructions: 4 cycles: 36 (Simulation time: 0 hr 0 min 2 sec) 
Warmup complete CPU 2 instructions: 4 cycles: 36 (Simulation time: 0 hr 0 min 2 sec) 
Warmup complete CPU 3 instructions: 4 cycles: 36 (Simulation time: 0 hr 0 min 2 sec) 

Heartbeat CPU 0 instructions: 10000004 cycles: 3907915 heartbeat IPC: 2.55891 cumulative IPC: 2.55893 (Simulation time: 1 hr 22 min 49 sec) 
Heartbeat CPU 1 instructions: 10000003 cycles: 3908023 heartbeat IPC: 2.55884 cumulative IPC: 2.55886 (Simulation time: 1 hr 22 min 49 sec) 
Heartbeat CPU 2 instructions: 10000003 cycles: 3908023 heartbeat IPC: 2.55884 cumulative IPC: 2.55886 (Simulation time: 1 hr 22 min 49 sec) 
Heartbeat CPU 3 instructions: 10000003 cycles: 3908023 heartbeat IPC: 2.55884 cumulative IPC: 2.55886 (Simulation time: 1 hr 22 min 49 sec) 
Heartbeat CPU 0 instructions: 20000002 cycles: 7812774 heartbeat IPC: 2.56091 cumulative IPC: 2.55992 (Simulation time: 3 hr 42 min 48 sec) 
Heartbeat CPU 1 instructions: 20000002 cycles: 7812805 heartbeat IPC: 2.56096 cumulative IPC: 2.55991 (Simulation time: 3 hr 42 min 48 sec) 
Heartbeat CPU 2 instructions: 20000002 cycles: 7812805 heartbeat IPC: 2.56096 cumulative IPC: 2.55991 (Simulation time: 3 hr 42 min 48 sec) 
Heartbeat CPU 3 instructions: 20000002 cycles: 7812805 heartbeat IPC: 2.56096 cumulative IPC: 2.55991 (Simulation time: 3 hr 42 min 48 sec) 
Heartbeat CPU 0 instructions: 30000002 cycles: 11768025 heartbeat IPC: 2.52828 cumulative IPC: 2.54929 (Simulation time: 5 hr 2 min 5 sec) 
Heartbeat CPU 1 instructions: 30000002 cycles: 11768056 heartbeat IPC: 2.52828 cumulative IPC: 2.54928 (Simulation time: 5 hr 2 min 21 sec) 
Heartbeat CPU 2 instructions: 30000002 cycles: 11768056 heartbeat IPC: 2.52828 cumulative IPC: 2.54928 (Simulation time: 5 hr 2 min 21 sec) 
Heartbeat CPU 3 instructions: 30000002 cycles: 11768056 heartbeat IPC: 2.52828 cumulative IPC: 2.54928 (Simulation time: 5 hr 2 min 21 sec) 
Heartbeat CPU 0 instructions: 40000001 cycles: 15657361 heartbeat IPC: 2.57113 cumulative IPC: 2.55471 (Simulation time: 6 hr 25 min 1 sec) 
Heartbeat CPU 1 instructions: 40000002 cycles: 15657394 heartbeat IPC: 2.57113 cumulative IPC: 2.55471 (Simulation time: 6 hr 25 min 2 sec) 
Heartbeat CPU 2 instructions: 40000002 cycles: 15657394 heartbeat IPC: 2.57113 cumulative IPC: 2.55471 (Simulation time: 6 hr 25 min 2 sec) 
Heartbeat CPU 3 instructions: 40000002 cycles: 15657394 heartbeat IPC: 2.57113 cumulative IPC: 2.55471 (Simulation time: 6 hr 25 min 2 sec) 
Heartbeat CPU 0 instructions: 50000000 cycles: 19650480 heartbeat IPC: 2.50431 cumulative IPC: 2.54447 (Simulation time: 7 hr 36 min 44 sec) 
Heartbeat CPU 1 instructions: 50000003 cycles: 19650521 heartbeat IPC: 2.5043 cumulative IPC: 2.54447 (Simulation time: 7 hr 36 min 44 sec) 
Heartbeat CPU 2 instructions: 50000003 cycles: 19650521 heartbeat IPC: 2.5043 cumulative IPC: 2.54447 (Simulation time: 7 hr 36 min 44 sec) 
Heartbeat CPU 3 instructions: 50000003 cycles: 19650521 heartbeat IPC: 2.5043 cumulative IPC: 2.54447 (Simulation time: 7 hr 36 min 44 sec) 
Heartbeat CPU 0 instructions: 60000003 cycles: 23562092 heartbeat IPC: 2.55649 cumulative IPC: 2.54647 (Simulation time: 8 hr 47 min 34 sec) 
Heartbeat CPU 1 instructions: 60000001 cycles: 23562365 heartbeat IPC: 2.55634 cumulative IPC: 2.54644 (Simulation time: 8 hr 47 min 34 sec) 
Heartbeat CPU 2 instructions: 60000001 cycles: 23562365 heartbeat IPC: 2.55634 cumulative IPC: 2.54644 (Simulation time: 8 hr 47 min 34 sec) 
Heartbeat CPU 3 instructions: 60000001 cycles: 23562365 heartbeat IPC: 2.55634 cumulative IPC: 2.54644 (Simulation time: 8 hr 47 min 34 sec) 
Heartbeat CPU 0 instructions: 70000001 cycles: 27372673 heartbeat IPC: 2.62427 cumulative IPC: 2.5573 (Simulation time: 9 hr 55 min 46 sec) 
Heartbeat CPU 3 instructions: 70000001 cycles: 27372673 heartbeat IPC: 2.62446 cumulative IPC: 2.5573 (Simulation time: 9 hr 55 min 46 sec) 
Heartbeat CPU 2 instructions: 70000003 cycles: 27372674 heartbeat IPC: 2.62446 cumulative IPC: 2.5573 (Simulation time: 9 hr 55 min 46 sec) 
Heartbeat CPU 1 instructions: 70000001 cycles: 27372675 heartbeat IPC: 2.62446 cumulative IPC: 2.5573 (Simulation time: 9 hr 55 min 46 sec) 
Heartbeat CPU 0 instructions: 80000003 cycles: 31326980 heartbeat IPC: 2.52889 cumulative IPC: 2.55371 (Simulation time: 10 hr 54 min 43 sec) 
Heartbeat CPU 1 instructions: 80000000 cycles: 31327022 heartbeat IPC: 2.52886 cumulative IPC: 2.55371 (Simulation time: 10 hr 54 min 43 sec) 
Heartbeat CPU 2 instructions: 80000000 cycles: 31327036 heartbeat IPC: 2.52885 cumulative IPC: 2.55371 (Simulation time: 10 hr 54 min 43 sec) 
Heartbeat CPU 3 instructions: 80000000 cycles: 31327036 heartbeat IPC: 2.52885 cumulative IPC: 2.55371 (Simulation time: 10 hr 54 min 43 sec) 
Heartbeat CPU 0 instructions: 90000000 cycles: 35227007 heartbeat IPC: 2.56408 cumulative IPC: 2.55486 (Simulation time: 11 hr 56 min 46 sec) 
Heartbeat CPU 1 instructions: 90000001 cycles: 35227061 heartbeat IPC: 2.56408 cumulative IPC: 2.55486 (Simulation time: 11 hr 56 min 46 sec) 
Heartbeat CPU 2 instructions: 90000001 cycles: 35227061 heartbeat IPC: 2.56409 cumulative IPC: 2.55486 (Simulation time: 11 hr 56 min 46 sec) 
Heartbeat CPU 3 instructions: 90000001 cycles: 35227061 heartbeat IPC: 2.56409 cumulative IPC: 2.55486 (Simulation time: 11 hr 56 min 46 sec) 
Heartbeat CPU 0 instructions: 100000000 cycles: 39193634 heartbeat IPC: 2.52103 cumulative IPC: 2.55144 (Simulation time: 12 hr 47 min 54 sec) 
Finished CPU 0 instructions: 100000001 cycles: 39193599 cumulative IPC: 2.55144 (Simulation time: 12 hr 47 min 54 sec) 
Heartbeat CPU 1 instructions: 100000000 cycles: 39193666 heartbeat IPC: 2.52105 cumulative IPC: 2.55143 (Simulation time: 12 hr 47 min 54 sec) 
Heartbeat CPU 2 instructions: 100000000 cycles: 39193666 heartbeat IPC: 2.52105 cumulative IPC: 2.55143 (Simulation time: 12 hr 47 min 54 sec) 
Heartbeat CPU 3 instructions: 100000000 cycles: 39193666 heartbeat IPC: 2.52105 cumulative IPC: 2.55143 (Simulation time: 12 hr 47 min 54 sec) 
Finished CPU 1 instructions: 100000001 cycles: 39193631 cumulative IPC: 2.55143 (Simulation time: 12 hr 47 min 54 sec) 
Finished CPU 2 instructions: 100000001 cycles: 39193631 cumulative IPC: 2.55143 (Simulation time: 12 hr 47 min 54 sec) 
Finished CPU 3 instructions: 100000001 cycles: 39193631 cumulative IPC: 2.55143 (Simulation time: 12 hr 47 min 54 sec) 

ChampSim completed all CPUs

Total Simulation Statistics (not including warmup)

CPU 0 cumulative IPC: 1.83516e-318 instructions: 100000001 cycles: 39193599
