
*** ChampSim Multicore Out-of-Order Simulator ***

Warmup Instructions: 0
Simulation Instructions: 100000000
Number of CPUs: 4
Off-chip DRAM Size: 8 GiB Channels: 1 Width: 64-bit Data Rate: 3200 MT/s

VirtualMemory physical capacity: 8588881920 num_ppages: 2096895
VirtualMemory page size: 4096 log2_page_size: 12

CPU 0 runs traces/444.namd-321B.champsimtrace.xz
CPU 1 runs traces/444.namd-321B.champsimtrace.xz
CPU 2 runs traces/444.namd-321B.champsimtrace.xz
CPU 3 runs traces/444.namd-321B.champsimtrace.xz
CPU 0 Bimodal branch predictor
Basic BTB sets: 1024 ways: 8 indirect buffer size: 4096 RAS size: 64
CPU 1 Bimodal branch predictor
Basic BTB sets: 1024 ways: 8 indirect buffer size: 4096 RAS size: 64
CPU 2 Bimodal branch predictor
Basic BTB sets: 1024 ways: 8 indirect buffer size: 4096 RAS size: 64
CPU 3 Bimodal branch predictor
Basic BTB sets: 1024 ways: 8 indirect buffer size: 4096 RAS size: 64

Warmup complete CPU 0 instructions: 2 cycles: 36 (Simulation time: 0 hr 0 min 1 sec) 
Warmup complete CPU 1 instructions: 2 cycles: 36 (Simulation time: 0 hr 0 min 1 sec) 
Warmup complete CPU 2 instructions: 2 cycles: 36 (Simulation time: 0 hr 0 min 1 sec) 
Warmup complete CPU 3 instructions: 2 cycles: 36 (Simulation time: 0 hr 0 min 1 sec) 

Heartbeat CPU 0 instructions: 10000001 cycles: 5096732 heartbeat IPC: 1.96204 cumulative IPC: 1.96206 (Simulation time: 1 hr 27 min 43 sec) 
Heartbeat CPU 1 instructions: 10000001 cycles: 5096765 heartbeat IPC: 1.96203 cumulative IPC: 1.96204 (Simulation time: 1 hr 27 min 43 sec) 
Heartbeat CPU 2 instructions: 10000001 cycles: 5096765 heartbeat IPC: 1.96203 cumulative IPC: 1.96204 (Simulation time: 1 hr 27 min 43 sec) 
Heartbeat CPU 3 instructions: 10000001 cycles: 5096765 heartbeat IPC: 1.96203 cumulative IPC: 1.96204 (Simulation time: 1 hr 27 min 43 sec) 
Heartbeat CPU 0 instructions: 20000004 cycles: 9749159 heartbeat IPC: 2.14942 cumulative IPC: 2.05147 (Simulation time: 2 hr 35 min 33 sec) 
Heartbeat CPU 1 instructions: 20000000 cycles: 9749407 heartbeat IPC: 2.14932 cumulative IPC: 2.05141 (Simulation time: 2 hr 35 min 33 sec) 
Heartbeat CPU 2 instructions: 20000000 cycles: 9749407 heartbeat IPC: 2.14932 cumulative IPC: 2.05141 (Simulation time: 2 hr 35 min 33 sec) 
Heartbeat CPU 3 instructions: 20000000 cycles: 9749407 heartbeat IPC: 2.14932 cumulative IPC: 2.05141 (Simulation time: 2 hr 35 min 33 sec) 
Heartbeat CPU 0 instructions: 30000001 cycles: 14642751 heartbeat IPC: 2.04349 cumulative IPC: 2.0488 (Simulation time: 3 hr 54 min 16 sec) 
Heartbeat CPU 1 instructions: 30000004 cycles: 14642799 heartbeat IPC: 2.04357 cumulative IPC: 2.04879 (Simulation time: 3 hr 54 min 16 sec) 
Heartbeat CPU 2 instructions: 30000004 cycles: 14642799 heartbeat IPC: 2.04357 cumulative IPC: 2.04879 (Simulation time: 3 hr 54 min 16 sec) 
Heartbeat CPU 3 instructions: 30000004 cycles: 14642799 heartbeat IPC: 2.04357 cumulative IPC: 2.04879 (Simulation time: 3 hr 54 min 16 sec) 
Heartbeat CPU 0 instructions: 40000002 cycles: 19385284 heartbeat IPC: 2.10858 cumulative IPC: 2.06342 (Simulation time: 5 hr 21 min 38 sec) 
Heartbeat CPU 1 instructions: 40000002 cycles: 19385316 heartbeat IPC: 2.10858 cumulative IPC: 2.06342 (Simulation time: 5 hr 21 min 38 sec) 
Heartbeat CPU 2 instructions: 40000002 cycles: 19385316 heartbeat IPC: 2.10858 cumulative IPC: 2.06342 (Simulation time: 5 hr 21 min 38 sec) 
Heartbeat CPU 3 instructions: 40000002 cycles: 19385316 heartbeat IPC: 2.10858 cumulative IPC: 2.06342 (Simulation time: 5 hr 21 min 38 sec) 
Heartbeat CPU 0 instructions: 50000000 cycles: 24529160 heartbeat IPC: 1.94406 cumulative IPC: 2.03839 (Simulation time: 6 hr 47 min 27 sec) 
Heartbeat CPU 1 instructions: 50000003 cycles: 24529198 heartbeat IPC: 1.94406 cumulative IPC: 2.03839 (Simulation time: 6 hr 47 min 28 sec) 
Heartbeat CPU 2 instructions: 50000003 cycles: 24529198 heartbeat IPC: 1.94406 cumulative IPC: 2.03839 (Simulation time: 6 hr 47 min 28 sec) 
Heartbeat CPU 3 instructions: 50000003 cycles: 24529198 heartbeat IPC: 1.94406 cumulative IPC: 2.03839 (Simulation time: 6 hr 47 min 28 sec) 
Heartbeat CPU 0 instructions: 60000002 cycles: 29607109 heartbeat IPC: 1.9693 cumulative IPC: 2.02654 (Simulation time: 8 hr 6 min 41 sec) 
Heartbeat CPU 1 instructions: 60000000 cycles: 29607156 heartbeat IPC: 1.96929 cumulative IPC: 2.02654 (Simulation time: 8 hr 6 min 41 sec) 
Heartbeat CPU 2 instructions: 60000000 cycles: 29607156 heartbeat IPC: 1.96929 cumulative IPC: 2.02654 (Simulation time: 8 hr 6 min 41 sec) 
Heartbeat CPU 3 instructions: 60000000 cycles: 29607156 heartbeat IPC: 1.96929 cumulative IPC: 2.02654 (Simulation time: 8 hr 6 min 41 sec) 
Heartbeat CPU 0 instructions: 70000001 cycles: 34330703 heartbeat IPC: 2.11703 cumulative IPC: 2.03899 (Simulation time: 9 hr 20 min 11 sec) 
Heartbeat CPU 1 instructions: 70000003 cycles: 34330740 heartbeat IPC: 2.11704 cumulative IPC: 2.03899 (Simulation time: 9 hr 20 min 11 sec) 
Heartbeat CPU 2 instructions: 70000003 cycles: 34330740 heartbeat IPC: 2.11704 cumulative IPC: 2.03899 (Simulation time: 9 hr 20 min 11 sec) 
Heartbeat CPU 3 instructions: 70000003 cycles: 34330740 heartbeat IPC: 2.11704 cumulative IPC: 2.03899 (Simulation time: 9 hr 20 min 11 sec) 
Heartbeat CPU 0 instructions: 80000002 cycles: 39152387 heartbeat IPC: 2.07396 cumulative IPC: 2.0433 (Simulation time: 10 hr 29 min 19 sec) 
Heartbeat CPU 1 instructions: 80000002 cycles: 39152628 heartbeat IPC: 2.07388 cumulative IPC: 2.04329 (Simulation time: 10 hr 29 min 19 sec) 
Heartbeat CPU 2 instructions: 80000002 cycles: 39152628 heartbeat IPC: 2.07388 cumulative IPC: 2.04329 (Simulation time: 10 hr 29 min 19 sec) 
Heartbeat CPU 3 instructions: 80000002 cycles: 39152628 heartbeat IPC: 2.07388 cumulative IPC: 2.04329 (Simulation time: 10 hr 29 min 19 sec) 
Heartbeat CPU 0 instructions: 90000000 cycles: 44060529 heartbeat IPC: 2.03743 cumulative IPC: 2.04265 (Simulation time: 11 hr 32 min 16 sec) 
Heartbeat CPU 1 instructions: 90000003 cycles: 44060707 heartbeat IPC: 2.03746 cumulative IPC: 2.04264 (Simulation time: 11 hr 32 min 16 sec) 
Heartbeat CPU 2 instructions: 90000003 cycles: 44060707 heartbeat IPC: 2.03746 cumulative IPC: 2.04264 (Simulation time: 11 hr 32 min 16 sec) 
Heartbeat CPU 3 instructions: 90000003 cycles: 44060707 heartbeat IPC: 2.03746 cumulative IPC: 2.04264 (Simulation time: 11 hr 32 min 16 sec) 
Heartbeat CPU 2 instructions: 100000000 cycles: 48849810 heartbeat IPC: 2.08807 cumulative IPC: 2.04709 (Simulation time: 12 hr 31 min 22 sec) 
Heartbeat CPU 3 instructions: 100000003 cycles: 48849810 heartbeat IPC: 2.08807 cumulative IPC: 2.04709 (Simulation time: 12 hr 31 min 22 sec) 
Finished CPU 3 instructions: 100000001 cycles: 48849774 cumulative IPC: 2.04709 (Simulation time: 12 hr 31 min 22 sec) 
Heartbeat CPU 0 instructions: 100000003 cycles: 48849811 heartbeat IPC: 2.088 cumulative IPC: 2.04709 (Simulation time: 12 hr 31 min 22 sec) 
Finished CPU 0 instructions: 100000001 cycles: 48849775 cumulative IPC: 2.04709 (Simulation time: 12 hr 31 min 22 sec) 
Heartbeat CPU 1 instructions: 100000003 cycles: 48849811 heartbeat IPC: 2.08807 cumulative IPC: 2.04709 (Simulation time: 12 hr 31 min 22 sec) 
Finished CPU 1 instructions: 100000001 cycles: 48849775 cumulative IPC: 2.04709 (Simulation time: 12 hr 31 min 22 sec) 
Finished CPU 2 instructions: 100000002 cycles: 48849775 cumulative IPC: 2.04709 (Simulation time: 12 hr 31 min 22 sec) 

ChampSim completed all CPUs

Total Simulation Statistics (not including warmup)

CPU 3 cumulative IPC: 2.04709 instructions: 100000001 cycles: 48849774
