
*** ChampSim Multicore Out-of-Order Simulator ***

Warmup Instructions: 0
Simulation Instructions: 100000000
Number of CPUs: 4
Off-chip DRAM Size: 128 GiB Channels: 1 Width: 64-bit Data Rate: 3200 MT/s

VirtualMemory physical capacity: 8588881920 num_ppages: 2096895
VirtualMemory page size: 4096 log2_page_size: 12

CPU 0 runs traces/444.namd-166B.champsimtrace.xz
CPU 1 runs traces/444.namd-166B.champsimtrace.xz
CPU 2 runs traces/444.namd-166B.champsimtrace.xz
CPU 3 runs traces/444.namd-166B.champsimtrace.xz
CPU 0 Bimodal branch predictor
Basic BTB sets: 1024 ways: 8 indirect buffer size: 4096 RAS size: 64
CPU 1 Bimodal branch predictor
Basic BTB sets: 1024 ways: 8 indirect buffer size: 4096 RAS size: 64
CPU 2 Bimodal branch predictor
Basic BTB sets: 1024 ways: 8 indirect buffer size: 4096 RAS size: 64
CPU 3 Bimodal branch predictor
Basic BTB sets: 1024 ways: 8 indirect buffer size: 4096 RAS size: 64

Warmup complete CPU 0 instructions: 6 cycles: 36 (Simulation time: 0 hr 0 min 2 sec) 
Warmup complete CPU 1 instructions: 8 cycles: 36 (Simulation time: 0 hr 0 min 2 sec) 
Warmup complete CPU 2 instructions: 4 cycles: 36 (Simulation time: 0 hr 0 min 2 sec) 
Warmup complete CPU 3 instructions: 8 cycles: 36 (Simulation time: 0 hr 0 min 2 sec) 

Heartbeat CPU 0 instructions: 10000003 cycles: 5073293 heartbeat IPC: 1.97111 cumulative IPC: 1.97112 (Simulation time: 1 hr 28 min 7 sec) 
Heartbeat CPU 1 instructions: 10000004 cycles: 5073327 heartbeat IPC: 1.97109 cumulative IPC: 1.97111 (Simulation time: 1 hr 28 min 7 sec) 
Heartbeat CPU 2 instructions: 10000004 cycles: 5073327 heartbeat IPC: 1.97109 cumulative IPC: 1.97111 (Simulation time: 1 hr 28 min 7 sec) 
Heartbeat CPU 3 instructions: 10000004 cycles: 5073327 heartbeat IPC: 1.97109 cumulative IPC: 1.97111 (Simulation time: 1 hr 28 min 7 sec) 
Heartbeat CPU 0 instructions: 20000000 cycles: 10128374 heartbeat IPC: 1.97821 cumulative IPC: 1.97466 (Simulation time: 3 hr 42 min 48 sec) 
Heartbeat CPU 1 instructions: 20000002 cycles: 10128689 heartbeat IPC: 1.9781 cumulative IPC: 1.9746 (Simulation time: 3 hr 42 min 49 sec) 
Heartbeat CPU 2 instructions: 20000002 cycles: 10128689 heartbeat IPC: 1.9781 cumulative IPC: 1.9746 (Simulation time: 3 hr 42 min 49 sec) 
Heartbeat CPU 3 instructions: 20000002 cycles: 10128689 heartbeat IPC: 1.9781 cumulative IPC: 1.9746 (Simulation time: 3 hr 42 min 49 sec) 
Heartbeat CPU 0 instructions: 30000002 cycles: 14471466 heartbeat IPC: 2.30251 cumulative IPC: 2.07305 (Simulation time: 5 hr 11 min 44 sec) 
Heartbeat CPU 1 instructions: 30000004 cycles: 14471622 heartbeat IPC: 2.30259 cumulative IPC: 2.07303 (Simulation time: 5 hr 11 min 44 sec) 
Heartbeat CPU 2 instructions: 30000002 cycles: 14471654 heartbeat IPC: 2.30257 cumulative IPC: 2.07302 (Simulation time: 5 hr 11 min 44 sec) 
Heartbeat CPU 3 instructions: 30000002 cycles: 14471654 heartbeat IPC: 2.30257 cumulative IPC: 2.07302 (Simulation time: 5 hr 11 min 44 sec) 
Heartbeat CPU 0 instructions: 40000000 cycles: 19463660 heartbeat IPC: 2.00313 cumulative IPC: 2.05512 (Simulation time: 6 hr 39 min 5 sec) 
Heartbeat CPU 1 instructions: 40000000 cycles: 19463691 heartbeat IPC: 2.00318 cumulative IPC: 2.05511 (Simulation time: 6 hr 39 min 5 sec) 
Heartbeat CPU 2 instructions: 40000000 cycles: 19463691 heartbeat IPC: 2.00319 cumulative IPC: 2.05511 (Simulation time: 6 hr 39 min 5 sec) 
Heartbeat CPU 3 instructions: 40000000 cycles: 19463691 heartbeat IPC: 2.00319 cumulative IPC: 2.05511 (Simulation time: 6 hr 39 min 5 sec) 
Heartbeat CPU 0 instructions: 50000004 cycles: 23701088 heartbeat IPC: 2.35992 cumulative IPC: 2.10961 (Simulation time: 8 hr 5 min 34 sec) 
Heartbeat CPU 1 instructions: 50000000 cycles: 23701280 heartbeat IPC: 2.35983 cumulative IPC: 2.10959 (Simulation time: 8 hr 5 min 34 sec) 
Heartbeat CPU 2 instructions: 50000000 cycles: 23701280 heartbeat IPC: 2.35983 cumulative IPC: 2.10959 (Simulation time: 8 hr 5 min 34 sec) 
Heartbeat CPU 3 instructions: 50000000 cycles: 23701280 heartbeat IPC: 2.35983 cumulative IPC: 2.10959 (Simulation time: 8 hr 5 min 34 sec) 
Heartbeat CPU 0 instructions: 60000002 cycles: 28711309 heartbeat IPC: 1.99592 cumulative IPC: 2.08977 (Simulation time: 9 hr 22 min 29 sec) 
Heartbeat CPU 1 instructions: 60000002 cycles: 28711342 heartbeat IPC: 1.99598 cumulative IPC: 2.08977 (Simulation time: 9 hr 22 min 29 sec) 
Heartbeat CPU 2 instructions: 60000002 cycles: 28711342 heartbeat IPC: 1.99598 cumulative IPC: 2.08977 (Simulation time: 9 hr 22 min 29 sec) 
Heartbeat CPU 3 instructions: 60000002 cycles: 28711342 heartbeat IPC: 1.99598 cumulative IPC: 2.08977 (Simulation time: 9 hr 22 min 29 sec) 
Heartbeat CPU 0 instructions: 70000001 cycles: 33658857 heartbeat IPC: 2.0212 cumulative IPC: 2.07969 (Simulation time: 10 hr 34 min 6 sec) 
Heartbeat CPU 1 instructions: 70000001 cycles: 33659021 heartbeat IPC: 2.02115 cumulative IPC: 2.07968 (Simulation time: 10 hr 34 min 7 sec) 
Heartbeat CPU 2 instructions: 70000001 cycles: 33659055 heartbeat IPC: 2.02114 cumulative IPC: 2.07968 (Simulation time: 10 hr 34 min 7 sec) 
Heartbeat CPU 3 instructions: 70000001 cycles: 33659055 heartbeat IPC: 2.02114 cumulative IPC: 2.07968 (Simulation time: 10 hr 34 min 7 sec) 
Heartbeat CPU 0 instructions: 80000003 cycles: 38134298 heartbeat IPC: 2.23442 cumulative IPC: 2.09785 (Simulation time: 11 hr 39 min 46 sec) 
Heartbeat CPU 1 instructions: 80000003 cycles: 38134448 heartbeat IPC: 2.23442 cumulative IPC: 2.09784 (Simulation time: 11 hr 39 min 46 sec) 
Heartbeat CPU 2 instructions: 80000003 cycles: 38134448 heartbeat IPC: 2.23444 cumulative IPC: 2.09784 (Simulation time: 11 hr 39 min 46 sec) 
Heartbeat CPU 3 instructions: 80000003 cycles: 38134448 heartbeat IPC: 2.23444 cumulative IPC: 2.09784 (Simulation time: 11 hr 39 min 46 sec) 
Heartbeat CPU 0 instructions: 90000002 cycles: 42840045 heartbeat IPC: 2.12506 cumulative IPC: 2.10084 (Simulation time: 12 hr 38 min 25 sec) 
Heartbeat CPU 1 instructions: 90000003 cycles: 42840183 heartbeat IPC: 2.12507 cumulative IPC: 2.10083 (Simulation time: 12 hr 38 min 26 sec) 
Heartbeat CPU 2 instructions: 90000003 cycles: 42840183 heartbeat IPC: 2.12507 cumulative IPC: 2.10083 (Simulation time: 12 hr 38 min 26 sec) 
Heartbeat CPU 3 instructions: 90000003 cycles: 42840183 heartbeat IPC: 2.12507 cumulative IPC: 2.10083 (Simulation time: 12 hr 38 min 26 sec) 
Heartbeat CPU 0 instructions: 100000004 cycles: 47454557 heartbeat IPC: 2.16708 cumulative IPC: 2.10728 (Simulation time: 13 hr 29 min 40 sec) 
Finished CPU 0 instructions: 100000003 cycles: 47454522 cumulative IPC: 2.10728 (Simulation time: 13 hr 29 min 40 sec) 
Heartbeat CPU 1 instructions: 100000000 cycles: 47454698 heartbeat IPC: 2.16707 cumulative IPC: 2.10727 (Simulation time: 13 hr 29 min 40 sec) 
Heartbeat CPU 2 instructions: 100000000 cycles: 47454698 heartbeat IPC: 2.16707 cumulative IPC: 2.10727 (Simulation time: 13 hr 29 min 40 sec) 
Heartbeat CPU 3 instructions: 100000000 cycles: 47454698 heartbeat IPC: 2.16707 cumulative IPC: 2.10727 (Simulation time: 13 hr 29 min 40 sec) 
Finished CPU 2 instructions: 100000001 cycles: 47454663 cumulative IPC: 2.10727 (Simulation time: 13 hr 29 min 40 sec) 
Finished CPU 1 instructions: 100000002 cycles: 47454664 cumulative IPC: 2.10727 (Simulation time: 13 hr 29 min 40 sec) 
Finished CPU 3 instructions: 100000002 cycles: 47454664 cumulative IPC: 2.10727 (Simulation time: 13 hr 29 min 40 sec) 

ChampSim completed all CPUs

Total Simulation Statistics (not including warmup)

CPU 0 cumulative IPC: 1.83516e-318 instructions: 100000003 cycles: 47454522
