
*** ChampSim Multicore Out-of-Order Simulator ***

Warmup Instructions: 0
Simulation Instructions: 100000000
Number of CPUs: 4
Off-chip DRAM Size: 8 GiB Channels: 1 Width: 64-bit Data Rate: 3200 MT/s

VirtualMemory physical capacity: 8588881920 num_ppages: 2096895
VirtualMemory page size: 4096 log2_page_size: 12

CPU 0 runs traces/444.namd-23B.champsimtrace.xz
CPU 1 runs traces/444.namd-23B.champsimtrace.xz
CPU 2 runs traces/444.namd-23B.champsimtrace.xz
CPU 3 runs traces/444.namd-23B.champsimtrace.xz
CPU 0 Bimodal branch predictor
Basic BTB sets: 1024 ways: 8 indirect buffer size: 4096 RAS size: 64
CPU 1 Bimodal branch predictor
Basic BTB sets: 1024 ways: 8 indirect buffer size: 4096 RAS size: 64
CPU 2 Bimodal branch predictor
Basic BTB sets: 1024 ways: 8 indirect buffer size: 4096 RAS size: 64
CPU 3 Bimodal branch predictor
Basic BTB sets: 1024 ways: 8 indirect buffer size: 4096 RAS size: 64

Warmup complete CPU 0 instructions: 2 cycles: 36 (Simulation time: 0 hr 0 min 1 sec) 
Warmup complete CPU 1 instructions: 2 cycles: 36 (Simulation time: 0 hr 0 min 1 sec) 
Warmup complete CPU 2 instructions: 2 cycles: 36 (Simulation time: 0 hr 0 min 1 sec) 
Warmup complete CPU 3 instructions: 2 cycles: 36 (Simulation time: 0 hr 0 min 1 sec) 

Heartbeat CPU 0 instructions: 10000000 cycles: 4665446 heartbeat IPC: 2.14342 cumulative IPC: 2.14343 (Simulation time: 1 hr 24 min 23 sec) 
Heartbeat CPU 1 instructions: 10000000 cycles: 4665480 heartbeat IPC: 2.1434 cumulative IPC: 2.14342 (Simulation time: 1 hr 24 min 23 sec) 
Heartbeat CPU 2 instructions: 10000000 cycles: 4665480 heartbeat IPC: 2.1434 cumulative IPC: 2.14342 (Simulation time: 1 hr 24 min 23 sec) 
Heartbeat CPU 3 instructions: 10000000 cycles: 4665480 heartbeat IPC: 2.1434 cumulative IPC: 2.14342 (Simulation time: 1 hr 24 min 23 sec) 
Heartbeat CPU 0 instructions: 20000000 cycles: 9179543 heartbeat IPC: 2.21528 cumulative IPC: 2.17877 (Simulation time: 2 hr 35 min 18 sec) 
Heartbeat CPU 1 instructions: 20000003 cycles: 9179584 heartbeat IPC: 2.21528 cumulative IPC: 2.17876 (Simulation time: 2 hr 35 min 18 sec) 
Heartbeat CPU 3 instructions: 20000003 cycles: 9179584 heartbeat IPC: 2.21528 cumulative IPC: 2.17876 (Simulation time: 2 hr 35 min 18 sec) 
Heartbeat CPU 2 instructions: 20000000 cycles: 9179585 heartbeat IPC: 2.21528 cumulative IPC: 2.17876 (Simulation time: 2 hr 35 min 18 sec) 
Heartbeat CPU 0 instructions: 30000002 cycles: 13668789 heartbeat IPC: 2.22755 cumulative IPC: 2.19479 (Simulation time: 3 hr 56 min 19 sec) 
Heartbeat CPU 1 instructions: 30000002 cycles: 13668846 heartbeat IPC: 2.22754 cumulative IPC: 2.19478 (Simulation time: 3 hr 56 min 19 sec) 
Heartbeat CPU 2 instructions: 30000002 cycles: 13668846 heartbeat IPC: 2.22754 cumulative IPC: 2.19478 (Simulation time: 3 hr 56 min 19 sec) 
Heartbeat CPU 3 instructions: 30000002 cycles: 13668846 heartbeat IPC: 2.22754 cumulative IPC: 2.19478 (Simulation time: 3 hr 56 min 19 sec) 
Heartbeat CPU 0 instructions: 40000003 cycles: 18257617 heartbeat IPC: 2.17921 cumulative IPC: 2.19087 (Simulation time: 5 hr 23 min 11 sec) 
Heartbeat CPU 1 instructions: 40000003 cycles: 18257650 heartbeat IPC: 2.17922 cumulative IPC: 2.19087 (Simulation time: 5 hr 23 min 12 sec) 
Heartbeat CPU 3 instructions: 40000003 cycles: 18257650 heartbeat IPC: 2.17922 cumulative IPC: 2.19087 (Simulation time: 5 hr 23 min 12 sec) 
Heartbeat CPU 2 instructions: 40000003 cycles: 18257653 heartbeat IPC: 2.17922 cumulative IPC: 2.19087 (Simulation time: 5 hr 23 min 12 sec) 
Heartbeat CPU 0 instructions: 50000002 cycles: 22917044 heartbeat IPC: 2.14619 cumulative IPC: 2.18179 (Simulation time: 6 hr 49 min 46 sec) 
Heartbeat CPU 1 instructions: 50000003 cycles: 22917069 heartbeat IPC: 2.14619 cumulative IPC: 2.18178 (Simulation time: 6 hr 49 min 46 sec) 
Heartbeat CPU 2 instructions: 50000003 cycles: 22917069 heartbeat IPC: 2.14619 cumulative IPC: 2.18178 (Simulation time: 6 hr 49 min 46 sec) 
Heartbeat CPU 3 instructions: 50000003 cycles: 22917069 heartbeat IPC: 2.14619 cumulative IPC: 2.18178 (Simulation time: 6 hr 49 min 46 sec) 
Heartbeat CPU 0 instructions: 60000002 cycles: 27789392 heartbeat IPC: 2.0524 cumulative IPC: 2.1591 (Simulation time: 8 hr 7 min 22 sec) 
Heartbeat CPU 1 instructions: 60000002 cycles: 27789423 heartbeat IPC: 2.0524 cumulative IPC: 2.1591 (Simulation time: 8 hr 7 min 22 sec) 
Heartbeat CPU 2 instructions: 60000002 cycles: 27789423 heartbeat IPC: 2.0524 cumulative IPC: 2.1591 (Simulation time: 8 hr 7 min 22 sec) 
Heartbeat CPU 3 instructions: 60000002 cycles: 27789423 heartbeat IPC: 2.0524 cumulative IPC: 2.1591 (Simulation time: 8 hr 7 min 22 sec) 
Heartbeat CPU 0 instructions: 70000002 cycles: 32446145 heartbeat IPC: 2.14742 cumulative IPC: 2.15742 (Simulation time: 9 hr 17 min 43 sec) 
Heartbeat CPU 1 instructions: 70000000 cycles: 32446228 heartbeat IPC: 2.14739 cumulative IPC: 2.15742 (Simulation time: 9 hr 17 min 43 sec) 
Heartbeat CPU 2 instructions: 70000000 cycles: 32446228 heartbeat IPC: 2.14739 cumulative IPC: 2.15742 (Simulation time: 9 hr 17 min 43 sec) 
Heartbeat CPU 3 instructions: 70000000 cycles: 32446228 heartbeat IPC: 2.14739 cumulative IPC: 2.15742 (Simulation time: 9 hr 17 min 43 sec) 
Heartbeat CPU 0 instructions: 80000002 cycles: 36959311 heartbeat IPC: 2.21574 cumulative IPC: 2.16454 (Simulation time: 10 hr 25 min 16 sec) 
Heartbeat CPU 1 instructions: 80000002 cycles: 36959622 heartbeat IPC: 2.21563 cumulative IPC: 2.16453 (Simulation time: 10 hr 25 min 16 sec) 
Heartbeat CPU 2 instructions: 80000002 cycles: 36959622 heartbeat IPC: 2.21563 cumulative IPC: 2.16453 (Simulation time: 10 hr 25 min 16 sec) 
Heartbeat CPU 3 instructions: 80000002 cycles: 36959622 heartbeat IPC: 2.21563 cumulative IPC: 2.16453 (Simulation time: 10 hr 25 min 16 sec) 
Heartbeat CPU 0 instructions: 90000002 cycles: 41254306 heartbeat IPC: 2.32829 cumulative IPC: 2.18159 (Simulation time: 11 hr 30 min 55 sec) 
Heartbeat CPU 1 instructions: 90000002 cycles: 41254326 heartbeat IPC: 2.32845 cumulative IPC: 2.18159 (Simulation time: 11 hr 30 min 55 sec) 
Heartbeat CPU 2 instructions: 90000002 cycles: 41254326 heartbeat IPC: 2.32845 cumulative IPC: 2.18159 (Simulation time: 11 hr 30 min 55 sec) 
Heartbeat CPU 3 instructions: 90000002 cycles: 41254328 heartbeat IPC: 2.32845 cumulative IPC: 2.18159 (Simulation time: 11 hr 30 min 55 sec) 
Heartbeat CPU 0 instructions: 100000000 cycles: 45931127 heartbeat IPC: 2.1382 cumulative IPC: 2.17717 (Simulation time: 12 hr 27 min 40 sec) 
Finished CPU 0 instructions: 100000003 cycles: 45931092 cumulative IPC: 2.17717 (Simulation time: 12 hr 27 min 40 sec) 
Heartbeat CPU 1 instructions: 100000002 cycles: 45931154 heartbeat IPC: 2.1382 cumulative IPC: 2.17717 (Simulation time: 12 hr 27 min 40 sec) 
Finished CPU 1 instructions: 100000000 cycles: 45931118 cumulative IPC: 2.17717 (Simulation time: 12 hr 27 min 40 sec) 
Heartbeat CPU 2 instructions: 100000002 cycles: 45931154 heartbeat IPC: 2.1382 cumulative IPC: 2.17717 (Simulation time: 12 hr 27 min 40 sec) 
Finished CPU 2 instructions: 100000000 cycles: 45931118 cumulative IPC: 2.17717 (Simulation time: 12 hr 27 min 40 sec) 
Heartbeat CPU 3 instructions: 100000002 cycles: 45931154 heartbeat IPC: 2.1382 cumulative IPC: 2.17717 (Simulation time: 12 hr 27 min 40 sec) 
Finished CPU 3 instructions: 100000000 cycles: 45931118 cumulative IPC: 2.17717 (Simulation time: 12 hr 27 min 40 sec) 

ChampSim completed all CPUs

Total Simulation Statistics (not including warmup)

CPU 0 cumulative IPC: 1.83516e-318 instructions: 100000003 cycles: 45931092
