
*** ChampSim Multicore Out-of-Order Simulator ***

Warmup Instructions: 0
Simulation Instructions: 100000000
Number of CPUs: 4
Off-chip DRAM Size: 8 GiB Channels: 1 Width: 64-bit Data Rate: 3200 MT/s

VirtualMemory physical capacity: 8588881920 num_ppages: 2096895
VirtualMemory page size: 4096 log2_page_size: 12

CPU 0 runs traces/444.namd-33B.champsimtrace.xz
CPU 1 runs traces/444.namd-33B.champsimtrace.xz
CPU 2 runs traces/444.namd-33B.champsimtrace.xz
CPU 3 runs traces/444.namd-33B.champsimtrace.xz
CPU 0 Bimodal branch predictor
Basic BTB sets: 1024 ways: 8 indirect buffer size: 4096 RAS size: 64
CPU 1 Bimodal branch predictor
Basic BTB sets: 1024 ways: 8 indirect buffer size: 4096 RAS size: 64
CPU 2 Bimodal branch predictor
Basic BTB sets: 1024 ways: 8 indirect buffer size: 4096 RAS size: 64
CPU 3 Bimodal branch predictor
Basic BTB sets: 1024 ways: 8 indirect buffer size: 4096 RAS size: 64

Warmup complete CPU 0 instructions: 4 cycles: 36 (Simulation time: 0 hr 0 min 1 sec) 
Warmup complete CPU 1 instructions: 4 cycles: 36 (Simulation time: 0 hr 0 min 1 sec) 
Warmup complete CPU 2 instructions: 4 cycles: 36 (Simulation time: 0 hr 0 min 1 sec) 
Warmup complete CPU 3 instructions: 4 cycles: 36 (Simulation time: 0 hr 0 min 1 sec) 

Heartbeat CPU 0 instructions: 10000003 cycles: 4003754 heartbeat IPC: 2.49766 cumulative IPC: 2.49768 (Simulation time: 1 hr 16 min 51 sec) 
Heartbeat CPU 2 instructions: 10000001 cycles: 4003901 heartbeat IPC: 2.49756 cumulative IPC: 2.49759 (Simulation time: 1 hr 16 min 51 sec) 
Heartbeat CPU 3 instructions: 10000001 cycles: 4003901 heartbeat IPC: 2.49756 cumulative IPC: 2.49759 (Simulation time: 1 hr 16 min 51 sec) 
Heartbeat CPU 1 instructions: 10000003 cycles: 4003930 heartbeat IPC: 2.49755 cumulative IPC: 2.49757 (Simulation time: 1 hr 16 min 51 sec) 
Heartbeat CPU 0 instructions: 20000002 cycles: 8042803 heartbeat IPC: 2.47583 cumulative IPC: 2.48671 (Simulation time: 2 hr 36 min 40 sec) 
Heartbeat CPU 2 instructions: 20000002 cycles: 8042808 heartbeat IPC: 2.47592 cumulative IPC: 2.4867 (Simulation time: 2 hr 36 min 40 sec) 
Heartbeat CPU 3 instructions: 20000002 cycles: 8042808 heartbeat IPC: 2.47592 cumulative IPC: 2.4867 (Simulation time: 2 hr 36 min 40 sec) 
Heartbeat CPU 1 instructions: 20000004 cycles: 8042825 heartbeat IPC: 2.47592 cumulative IPC: 2.4867 (Simulation time: 2 hr 36 min 40 sec) 
Heartbeat CPU 0 instructions: 30000002 cycles: 12096485 heartbeat IPC: 2.46689 cumulative IPC: 2.48007 (Simulation time: 3 hr 35 min 50 sec) 
Heartbeat CPU 1 instructions: 30000002 cycles: 12096487 heartbeat IPC: 2.4669 cumulative IPC: 2.48007 (Simulation time: 3 hr 35 min 50 sec) 
Heartbeat CPU 2 instructions: 30000002 cycles: 12096487 heartbeat IPC: 2.46689 cumulative IPC: 2.48007 (Simulation time: 3 hr 35 min 50 sec) 
Heartbeat CPU 3 instructions: 30000002 cycles: 12096487 heartbeat IPC: 2.46689 cumulative IPC: 2.48007 (Simulation time: 3 hr 35 min 50 sec) 
Heartbeat CPU 0 instructions: 40000001 cycles: 16132209 heartbeat IPC: 2.47787 cumulative IPC: 2.47952 (Simulation time: 4 hr 50 min 47 sec) 
Heartbeat CPU 1 instructions: 40000002 cycles: 16132212 heartbeat IPC: 2.47787 cumulative IPC: 2.47952 (Simulation time: 4 hr 50 min 47 sec) 
Heartbeat CPU 2 instructions: 40000002 cycles: 16132212 heartbeat IPC: 2.47787 cumulative IPC: 2.47952 (Simulation time: 4 hr 50 min 47 sec) 
Heartbeat CPU 3 instructions: 40000002 cycles: 16132212 heartbeat IPC: 2.47787 cumulative IPC: 2.47952 (Simulation time: 4 hr 50 min 47 sec) 
Heartbeat CPU 0 instructions: 50000000 cycles: 20311397 heartbeat IPC: 2.39281 cumulative IPC: 2.46168 (Simulation time: 5 hr 59 min 29 sec) 
Heartbeat CPU 1 instructions: 50000003 cycles: 20311402 heartbeat IPC: 2.39281 cumulative IPC: 2.46168 (Simulation time: 5 hr 59 min 29 sec) 
Heartbeat CPU 3 instructions: 50000000 cycles: 20311402 heartbeat IPC: 2.39281 cumulative IPC: 2.46168 (Simulation time: 5 hr 59 min 29 sec) 
Heartbeat CPU 2 instructions: 50000000 cycles: 20311404 heartbeat IPC: 2.39281 cumulative IPC: 2.46168 (Simulation time: 5 hr 59 min 29 sec) 
Heartbeat CPU 0 instructions: 60000004 cycles: 24449817 heartbeat IPC: 2.41638 cumulative IPC: 2.45401 (Simulation time: 7 hr 4 min 37 sec) 
Heartbeat CPU 1 instructions: 60000003 cycles: 24450022 heartbeat IPC: 2.41626 cumulative IPC: 2.45399 (Simulation time: 7 hr 4 min 37 sec) 
Heartbeat CPU 2 instructions: 60000003 cycles: 24450022 heartbeat IPC: 2.41627 cumulative IPC: 2.45399 (Simulation time: 7 hr 4 min 37 sec) 
Heartbeat CPU 3 instructions: 60000003 cycles: 24450022 heartbeat IPC: 2.41627 cumulative IPC: 2.45399 (Simulation time: 7 hr 4 min 37 sec) 
Heartbeat CPU 0 instructions: 70000002 cycles: 28451739 heartbeat IPC: 2.4988 cumulative IPC: 2.46031 (Simulation time: 8 hr 11 min 11 sec) 
Heartbeat CPU 1 instructions: 70000000 cycles: 28451797 heartbeat IPC: 2.49889 cumulative IPC: 2.4603 (Simulation time: 8 hr 11 min 11 sec) 
Heartbeat CPU 2 instructions: 70000000 cycles: 28451797 heartbeat IPC: 2.49889 cumulative IPC: 2.4603 (Simulation time: 8 hr 11 min 11 sec) 
Heartbeat CPU 3 instructions: 70000000 cycles: 28451797 heartbeat IPC: 2.49889 cumulative IPC: 2.4603 (Simulation time: 8 hr 11 min 11 sec) 
Heartbeat CPU 0 instructions: 80000003 cycles: 32570045 heartbeat IPC: 2.42818 cumulative IPC: 2.45625 (Simulation time: 9 hr 10 min 37 sec) 
Heartbeat CPU 1 instructions: 80000003 cycles: 32570047 heartbeat IPC: 2.42822 cumulative IPC: 2.45625 (Simulation time: 9 hr 10 min 37 sec) 
Heartbeat CPU 2 instructions: 80000004 cycles: 32570061 heartbeat IPC: 2.42821 cumulative IPC: 2.45625 (Simulation time: 9 hr 10 min 37 sec) 
Heartbeat CPU 3 instructions: 80000004 cycles: 32570065 heartbeat IPC: 2.42821 cumulative IPC: 2.45625 (Simulation time: 9 hr 10 min 37 sec) 
Heartbeat CPU 0 instructions: 90000000 cycles: 36682475 heartbeat IPC: 2.43165 cumulative IPC: 2.45349 (Simulation time: 10 hr 10 min 49 sec) 
Heartbeat CPU 1 instructions: 90000002 cycles: 36682493 heartbeat IPC: 2.43164 cumulative IPC: 2.45349 (Simulation time: 10 hr 10 min 49 sec) 
Heartbeat CPU 2 instructions: 90000002 cycles: 36682493 heartbeat IPC: 2.43165 cumulative IPC: 2.45349 (Simulation time: 10 hr 10 min 49 sec) 
Heartbeat CPU 3 instructions: 90000002 cycles: 36682493 heartbeat IPC: 2.43165 cumulative IPC: 2.45349 (Simulation time: 10 hr 10 min 49 sec) 
Heartbeat CPU 0 instructions: 100000000 cycles: 40800131 heartbeat IPC: 2.42857 cumulative IPC: 2.45097 (Simulation time: 11 hr 4 min 21 sec) 
Finished CPU 0 instructions: 100000001 cycles: 40800096 cumulative IPC: 2.45097 (Simulation time: 11 hr 4 min 21 sec) 
Heartbeat CPU 3 instructions: 100000001 cycles: 40800145 heartbeat IPC: 2.42857 cumulative IPC: 2.45097 (Simulation time: 11 hr 4 min 21 sec) 
Finished CPU 3 instructions: 100000002 cycles: 40800110 cumulative IPC: 2.45097 (Simulation time: 11 hr 4 min 21 sec) 
Heartbeat CPU 1 instructions: 100000004 cycles: 40800155 heartbeat IPC: 2.42856 cumulative IPC: 2.45097 (Simulation time: 11 hr 4 min 21 sec) 
Finished CPU 1 instructions: 100000000 cycles: 40800119 cumulative IPC: 2.45097 (Simulation time: 11 hr 4 min 21 sec) 
Heartbeat CPU 2 instructions: 100000001 cycles: 40800156 heartbeat IPC: 2.42856 cumulative IPC: 2.45097 (Simulation time: 11 hr 4 min 21 sec) 
Finished CPU 2 instructions: 100000002 cycles: 40800121 cumulative IPC: 2.45097 (Simulation time: 11 hr 4 min 21 sec) 

ChampSim completed all CPUs

Total Simulation Statistics (not including warmup)

CPU 0 cumulative IPC: 1.83516e-318 instructions: 100000001 cycles: 40800096
