
*** ChampSim Multicore Out-of-Order Simulator ***

Warmup Instructions: 0
Simulation Instructions: 100000000
Number of CPUs: 4
Off-chip DRAM Size: 2 GiB Channels: 1 Width: 64-bit Data Rate: 3200 MT/s

VirtualMemory physical capacity: 8588881920 num_ppages: 2096895
VirtualMemory page size: 4096 log2_page_size: 12

CPU 0 runs traces/444.namd-120B.champsimtrace.xz
CPU 1 runs traces/444.namd-120B.champsimtrace.xz
CPU 2 runs traces/444.namd-120B.champsimtrace.xz
CPU 3 runs traces/444.namd-120B.champsimtrace.xz
CPU 0 Bimodal branch predictor
Basic BTB sets: 1024 ways: 8 indirect buffer size: 4096 RAS size: 64
CPU 1 Bimodal branch predictor
Basic BTB sets: 1024 ways: 8 indirect buffer size: 4096 RAS size: 64
CPU 2 Bimodal branch predictor
Basic BTB sets: 1024 ways: 8 indirect buffer size: 4096 RAS size: 64
CPU 3 Bimodal branch predictor
Basic BTB sets: 1024 ways: 8 indirect buffer size: 4096 RAS size: 64

Warmup complete CPU 0 instructions: 1 cycles: 54 (Simulation time: 0 hr 0 min 1 sec) 
Warmup complete CPU 1 instructions: 1 cycles: 54 (Simulation time: 0 hr 0 min 1 sec) 
Warmup complete CPU 2 instructions: 1 cycles: 54 (Simulation time: 0 hr 0 min 1 sec) 
Warmup complete CPU 3 instructions: 1 cycles: 54 (Simulation time: 0 hr 0 min 1 sec) 

Heartbeat CPU 0 instructions: 10000001 cycles: 10730599 heartbeat IPC: 0.931915 cumulative IPC: 0.931919 (Simulation time: 1 hr 50 min 59 sec) 
Heartbeat CPU 1 instructions: 10000001 cycles: 10730600 heartbeat IPC: 0.931914 cumulative IPC: 0.931919 (Simulation time: 1 hr 51 min 4 sec) 
Heartbeat CPU 2 instructions: 10000001 cycles: 10730600 heartbeat IPC: 0.931914 cumulative IPC: 0.931919 (Simulation time: 1 hr 51 min 4 sec) 
Heartbeat CPU 3 instructions: 10000001 cycles: 10730600 heartbeat IPC: 0.931914 cumulative IPC: 0.931919 (Simulation time: 1 hr 51 min 4 sec) 
Heartbeat CPU 0 instructions: 20000003 cycles: 16805013 heartbeat IPC: 1.64625 cumulative IPC: 1.19012 (Simulation time: 2 hr 42 min 27 sec) 
Heartbeat CPU 1 instructions: 20000002 cycles: 16805219 heartbeat IPC: 1.64619 cumulative IPC: 1.19011 (Simulation time: 2 hr 42 min 27 sec) 
Heartbeat CPU 2 instructions: 20000002 cycles: 16805219 heartbeat IPC: 1.64619 cumulative IPC: 1.19011 (Simulation time: 2 hr 42 min 27 sec) 
Heartbeat CPU 3 instructions: 20000002 cycles: 16805219 heartbeat IPC: 1.64619 cumulative IPC: 1.19011 (Simulation time: 2 hr 42 min 27 sec) 
Heartbeat CPU 0 instructions: 30000002 cycles: 26923920 heartbeat IPC: 0.988249 cumulative IPC: 1.11425 (Simulation time: 4 hr 20 min 58 sec) 
Heartbeat CPU 1 instructions: 30000001 cycles: 26923922 heartbeat IPC: 0.988269 cumulative IPC: 1.11425 (Simulation time: 4 hr 20 min 58 sec) 
Heartbeat CPU 2 instructions: 30000001 cycles: 26923922 heartbeat IPC: 0.988269 cumulative IPC: 1.11425 (Simulation time: 4 hr 20 min 58 sec) 
Heartbeat CPU 3 instructions: 30000001 cycles: 26923922 heartbeat IPC: 0.988269 cumulative IPC: 1.11425 (Simulation time: 4 hr 20 min 58 sec) 
Heartbeat CPU 0 instructions: 40000002 cycles: 34312185 heartbeat IPC: 1.3535 cumulative IPC: 1.16577 (Simulation time: 5 hr 52 min 36 sec) 
Heartbeat CPU 1 instructions: 40000002 cycles: 34312186 heartbeat IPC: 1.3535 cumulative IPC: 1.16577 (Simulation time: 5 hr 52 min 36 sec) 
Heartbeat CPU 2 instructions: 40000002 cycles: 34312186 heartbeat IPC: 1.3535 cumulative IPC: 1.16577 (Simulation time: 5 hr 52 min 36 sec) 
Heartbeat CPU 3 instructions: 40000002 cycles: 34312186 heartbeat IPC: 1.3535 cumulative IPC: 1.16577 (Simulation time: 5 hr 52 min 36 sec) 
Heartbeat CPU 0 instructions: 50000004 cycles: 47247310 heartbeat IPC: 0.773089 cumulative IPC: 1.05826 (Simulation time: 7 hr 51 min 32 sec) 
Heartbeat CPU 1 instructions: 50000004 cycles: 47247312 heartbeat IPC: 0.773089 cumulative IPC: 1.05826 (Simulation time: 7 hr 51 min 32 sec) 
Heartbeat CPU 2 instructions: 50000004 cycles: 47247312 heartbeat IPC: 0.773089 cumulative IPC: 1.05826 (Simulation time: 7 hr 51 min 32 sec) 
Heartbeat CPU 3 instructions: 50000004 cycles: 47247312 heartbeat IPC: 0.773089 cumulative IPC: 1.05826 (Simulation time: 7 hr 51 min 32 sec) 
Heartbeat CPU 0 instructions: 60000001 cycles: 56728629 heartbeat IPC: 1.05471 cumulative IPC: 1.05767 (Simulation time: 9 hr 16 min 45 sec) 
Heartbeat CPU 1 instructions: 60000001 cycles: 56728704 heartbeat IPC: 1.0547 cumulative IPC: 1.05767 (Simulation time: 9 hr 16 min 45 sec) 
Heartbeat CPU 2 instructions: 60000001 cycles: 56728704 heartbeat IPC: 1.0547 cumulative IPC: 1.05767 (Simulation time: 9 hr 16 min 45 sec) 
Heartbeat CPU 3 instructions: 60000001 cycles: 56728704 heartbeat IPC: 1.0547 cumulative IPC: 1.05767 (Simulation time: 9 hr 16 min 45 sec) 
Heartbeat CPU 0 instructions: 70000002 cycles: 66529626 heartbeat IPC: 1.0203 cumulative IPC: 1.05216 (Simulation time: 10 hr 42 min 22 sec) 
Heartbeat CPU 1 instructions: 70000001 cycles: 66529786 heartbeat IPC: 1.0203 cumulative IPC: 1.05216 (Simulation time: 10 hr 42 min 22 sec) 
Heartbeat CPU 2 instructions: 70000001 cycles: 66529786 heartbeat IPC: 1.0203 cumulative IPC: 1.05216 (Simulation time: 10 hr 42 min 22 sec) 
Heartbeat CPU 3 instructions: 70000001 cycles: 66529786 heartbeat IPC: 1.0203 cumulative IPC: 1.05216 (Simulation time: 10 hr 42 min 22 sec) 
Heartbeat CPU 0 instructions: 80000004 cycles: 74675438 heartbeat IPC: 1.22762 cumulative IPC: 1.0713 (Simulation time: 11 hr 53 min 19 sec) 
Heartbeat CPU 1 instructions: 80000004 cycles: 74675459 heartbeat IPC: 1.22765 cumulative IPC: 1.0713 (Simulation time: 11 hr 53 min 19 sec) 
Heartbeat CPU 2 instructions: 80000004 cycles: 74675459 heartbeat IPC: 1.22765 cumulative IPC: 1.0713 (Simulation time: 11 hr 53 min 19 sec) 
Heartbeat CPU 3 instructions: 80000004 cycles: 74675459 heartbeat IPC: 1.22765 cumulative IPC: 1.0713 (Simulation time: 11 hr 53 min 19 sec) 
Heartbeat CPU 0 instructions: 90000004 cycles: 83356206 heartbeat IPC: 1.15197 cumulative IPC: 1.0797 (Simulation time: 12 hr 59 min 49 sec) 
Heartbeat CPU 1 instructions: 90000001 cycles: 83356312 heartbeat IPC: 1.15196 cumulative IPC: 1.0797 (Simulation time: 12 hr 59 min 49 sec) 
Heartbeat CPU 2 instructions: 90000001 cycles: 83356312 heartbeat IPC: 1.15196 cumulative IPC: 1.0797 (Simulation time: 12 hr 59 min 49 sec) 
Heartbeat CPU 3 instructions: 90000001 cycles: 83356312 heartbeat IPC: 1.15196 cumulative IPC: 1.0797 (Simulation time: 12 hr 59 min 49 sec) 
Heartbeat CPU 0 instructions: 100000000 cycles: 90220878 heartbeat IPC: 1.45673 cumulative IPC: 1.10839 (Simulation time: 13 hr 52 min 50 sec) 
Finished CPU 0 instructions: 100000004 cycles: 90220825 cumulative IPC: 1.10839 (Simulation time: 13 hr 52 min 51 sec) 
Heartbeat CPU 1 instructions: 100000000 cycles: 90220879 heartbeat IPC: 1.45676 cumulative IPC: 1.10839 (Simulation time: 13 hr 52 min 51 sec) 
Heartbeat CPU 2 instructions: 100000000 cycles: 90220879 heartbeat IPC: 1.45676 cumulative IPC: 1.10839 (Simulation time: 13 hr 52 min 51 sec) 
Heartbeat CPU 3 instructions: 100000000 cycles: 90220879 heartbeat IPC: 1.45676 cumulative IPC: 1.10839 (Simulation time: 13 hr 52 min 51 sec) 
Finished CPU 1 instructions: 100000004 cycles: 90220826 cumulative IPC: 1.10839 (Simulation time: 13 hr 52 min 51 sec) 
Finished CPU 2 instructions: 100000004 cycles: 90220826 cumulative IPC: 1.10839 (Simulation time: 13 hr 52 min 51 sec) 
Finished CPU 3 instructions: 100000004 cycles: 90220826 cumulative IPC: 1.10839 (Simulation time: 13 hr 52 min 51 sec) 

ChampSim completed all CPUs

Total Simulation Statistics (not including warmup)

CPU 0 cumulative IPC: 1.83516e-318 instructions: 100000004 cycles: 90220825
