
*** ChampSim Multicore Out-of-Order Simulator ***

Warmup Instructions: 0
Simulation Instructions: 100000000
Number of CPUs: 4
Off-chip DRAM Size: 128 GiB Channels: 1 Width: 64-bit Data Rate: 3200 MT/s

VirtualMemory physical capacity: 8588881920 num_ppages: 2096895
VirtualMemory page size: 4096 log2_page_size: 12

CPU 0 runs traces/444.namd-120B.champsimtrace.xz
CPU 1 runs traces/444.namd-120B.champsimtrace.xz
CPU 2 runs traces/444.namd-120B.champsimtrace.xz
CPU 3 runs traces/444.namd-120B.champsimtrace.xz
CPU 0 Bimodal branch predictor
Basic BTB sets: 1024 ways: 8 indirect buffer size: 4096 RAS size: 64
CPU 1 Bimodal branch predictor
Basic BTB sets: 1024 ways: 8 indirect buffer size: 4096 RAS size: 64
CPU 2 Bimodal branch predictor
Basic BTB sets: 1024 ways: 8 indirect buffer size: 4096 RAS size: 64
CPU 3 Bimodal branch predictor
Basic BTB sets: 1024 ways: 8 indirect buffer size: 4096 RAS size: 64

Warmup complete CPU 0 instructions: 50 cycles: 124 (Simulation time: 0 hr 0 min 2 sec) 
Warmup complete CPU 1 instructions: 1 cycles: 124 (Simulation time: 0 hr 0 min 2 sec) 
Warmup complete CPU 2 instructions: 1 cycles: 124 (Simulation time: 0 hr 0 min 2 sec) 
Warmup complete CPU 3 instructions: 1 cycles: 124 (Simulation time: 0 hr 0 min 2 sec) 

Heartbeat CPU 0 instructions: 10000004 cycles: 4513716 heartbeat IPC: 2.21547 cumulative IPC: 2.21552 (Simulation time: 1 hr 22 min 46 sec) 
Heartbeat CPU 2 instructions: 10000001 cycles: 4513746 heartbeat IPC: 2.21546 cumulative IPC: 2.21552 (Simulation time: 1 hr 22 min 46 sec) 
Heartbeat CPU 3 instructions: 10000001 cycles: 4513746 heartbeat IPC: 2.21546 cumulative IPC: 2.21552 (Simulation time: 1 hr 22 min 46 sec) 
Heartbeat CPU 1 instructions: 10000004 cycles: 4513747 heartbeat IPC: 2.21546 cumulative IPC: 2.21552 (Simulation time: 1 hr 22 min 46 sec) 
Heartbeat CPU 0 instructions: 20000003 cycles: 8600374 heartbeat IPC: 2.44699 cumulative IPC: 2.32551 (Simulation time: 2 hr 34 min 0 sec) 
Heartbeat CPU 2 instructions: 20000002 cycles: 8600540 heartbeat IPC: 2.44691 cumulative IPC: 2.32547 (Simulation time: 2 hr 34 min 0 sec) 
Heartbeat CPU 1 instructions: 20000003 cycles: 8600561 heartbeat IPC: 2.44689 cumulative IPC: 2.32546 (Simulation time: 2 hr 34 min 0 sec) 
Heartbeat CPU 3 instructions: 20000003 cycles: 8600561 heartbeat IPC: 2.44689 cumulative IPC: 2.32546 (Simulation time: 2 hr 34 min 0 sec) 
Heartbeat CPU 0 instructions: 30000003 cycles: 12907547 heartbeat IPC: 2.32171 cumulative IPC: 2.32424 (Simulation time: 4 hr 4 min 33 sec) 
Heartbeat CPU 1 instructions: 30000003 cycles: 12907578 heartbeat IPC: 2.32179 cumulative IPC: 2.32424 (Simulation time: 4 hr 4 min 40 sec) 
Heartbeat CPU 3 instructions: 30000000 cycles: 12907589 heartbeat IPC: 2.32179 cumulative IPC: 2.32424 (Simulation time: 4 hr 4 min 46 sec) 
Heartbeat CPU 2 instructions: 30000003 cycles: 12907605 heartbeat IPC: 2.32177 cumulative IPC: 2.32423 (Simulation time: 4 hr 4 min 49 sec) 
Heartbeat CPU 0 instructions: 40000002 cycles: 17092755 heartbeat IPC: 2.38937 cumulative IPC: 2.34019 (Simulation time: 5 hr 34 min 48 sec) 
Heartbeat CPU 1 instructions: 40000002 cycles: 17092786 heartbeat IPC: 2.38937 cumulative IPC: 2.34019 (Simulation time: 5 hr 34 min 48 sec) 
Heartbeat CPU 2 instructions: 40000002 cycles: 17092786 heartbeat IPC: 2.38938 cumulative IPC: 2.34019 (Simulation time: 5 hr 34 min 48 sec) 
Heartbeat CPU 3 instructions: 40000002 cycles: 17092786 heartbeat IPC: 2.38937 cumulative IPC: 2.34019 (Simulation time: 5 hr 34 min 48 sec) 
Heartbeat CPU 0 instructions: 50000004 cycles: 21484018 heartbeat IPC: 2.27725 cumulative IPC: 2.32732 (Simulation time: 6 hr 51 min 33 sec) 
Heartbeat CPU 1 instructions: 50000004 cycles: 21484068 heartbeat IPC: 2.27724 cumulative IPC: 2.32732 (Simulation time: 6 hr 51 min 33 sec) 
Heartbeat CPU 2 instructions: 50000003 cycles: 21484087 heartbeat IPC: 2.27723 cumulative IPC: 2.32732 (Simulation time: 6 hr 51 min 33 sec) 
Heartbeat CPU 3 instructions: 50000004 cycles: 21484110 heartbeat IPC: 2.27722 cumulative IPC: 2.32732 (Simulation time: 6 hr 51 min 33 sec) 
Heartbeat CPU 0 instructions: 60000001 cycles: 25919347 heartbeat IPC: 2.25462 cumulative IPC: 2.31488 (Simulation time: 8 hr 5 min 49 sec) 
Heartbeat CPU 1 instructions: 60000001 cycles: 25919428 heartbeat IPC: 2.25461 cumulative IPC: 2.31488 (Simulation time: 8 hr 5 min 49 sec) 
Heartbeat CPU 2 instructions: 60000001 cycles: 25919428 heartbeat IPC: 2.25462 cumulative IPC: 2.31488 (Simulation time: 8 hr 5 min 49 sec) 
Heartbeat CPU 3 instructions: 60000001 cycles: 25919428 heartbeat IPC: 2.25463 cumulative IPC: 2.31488 (Simulation time: 8 hr 5 min 49 sec) 
Heartbeat CPU 0 instructions: 70000004 cycles: 30224827 heartbeat IPC: 2.32262 cumulative IPC: 2.31598 (Simulation time: 9 hr 18 min 28 sec) 
Heartbeat CPU 2 instructions: 70000004 cycles: 30224969 heartbeat IPC: 2.32259 cumulative IPC: 2.31598 (Simulation time: 9 hr 18 min 29 sec) 
Heartbeat CPU 1 instructions: 70000004 cycles: 30225011 heartbeat IPC: 2.32257 cumulative IPC: 2.31597 (Simulation time: 9 hr 18 min 29 sec) 
Heartbeat CPU 3 instructions: 70000003 cycles: 30225060 heartbeat IPC: 2.32254 cumulative IPC: 2.31597 (Simulation time: 9 hr 18 min 29 sec) 
Heartbeat CPU 0 instructions: 80000002 cycles: 34476310 heartbeat IPC: 2.35212 cumulative IPC: 2.32044 (Simulation time: 10 hr 26 min 20 sec) 
Heartbeat CPU 1 instructions: 80000004 cycles: 34476342 heartbeat IPC: 2.3522 cumulative IPC: 2.32044 (Simulation time: 10 hr 26 min 20 sec) 
Heartbeat CPU 2 instructions: 80000004 cycles: 34476342 heartbeat IPC: 2.35218 cumulative IPC: 2.32044 (Simulation time: 10 hr 26 min 20 sec) 
Heartbeat CPU 3 instructions: 80000004 cycles: 34476342 heartbeat IPC: 2.35223 cumulative IPC: 2.32044 (Simulation time: 10 hr 26 min 20 sec) 
Heartbeat CPU 0 instructions: 90000004 cycles: 38601720 heartbeat IPC: 2.424 cumulative IPC: 2.33151 (Simulation time: 11 hr 30 min 11 sec) 
Heartbeat CPU 1 instructions: 90000004 cycles: 38601968 heartbeat IPC: 2.42387 cumulative IPC: 2.33149 (Simulation time: 11 hr 30 min 11 sec) 
Heartbeat CPU 2 instructions: 90000004 cycles: 38601968 heartbeat IPC: 2.42387 cumulative IPC: 2.33149 (Simulation time: 11 hr 30 min 11 sec) 
Heartbeat CPU 3 instructions: 90000004 cycles: 38601968 heartbeat IPC: 2.42387 cumulative IPC: 2.33149 (Simulation time: 11 hr 30 min 11 sec) 
Heartbeat CPU 0 instructions: 100000000 cycles: 42694049 heartbeat IPC: 2.4436 cumulative IPC: 2.34225 (Simulation time: 12 hr 29 min 6 sec) 
Finished CPU 0 instructions: 100000000 cycles: 42693935 cumulative IPC: 2.34225 (Simulation time: 12 hr 29 min 6 sec) 
Heartbeat CPU 2 instructions: 100000000 cycles: 42694083 heartbeat IPC: 2.44372 cumulative IPC: 2.34225 (Simulation time: 12 hr 29 min 6 sec) 
Heartbeat CPU 3 instructions: 100000000 cycles: 42694083 heartbeat IPC: 2.44372 cumulative IPC: 2.34225 (Simulation time: 12 hr 29 min 6 sec) 
Finished CPU 2 instructions: 100000004 cycles: 42693960 cumulative IPC: 2.34225 (Simulation time: 12 hr 29 min 6 sec) 
Finished CPU 3 instructions: 100000004 cycles: 42693960 cumulative IPC: 2.34225 (Simulation time: 12 hr 29 min 6 sec) 
Heartbeat CPU 1 instructions: 100000001 cycles: 42694086 heartbeat IPC: 2.44372 cumulative IPC: 2.34225 (Simulation time: 12 hr 29 min 6 sec) 
Finished CPU 1 instructions: 100000000 cycles: 42693962 cumulative IPC: 2.34225 (Simulation time: 12 hr 29 min 6 sec) 

ChampSim completed all CPUs

Total Simulation Statistics (not including warmup)

CPU 0 cumulative IPC: 1.83516e-318 instructions: 100000000 cycles: 42693935
