
*** ChampSim Multicore Out-of-Order Simulator ***

Warmup Instructions: 0
Simulation Instructions: 100000000
Number of CPUs: 4
Off-chip DRAM Size: 128 GiB Channels: 1 Width: 64-bit Data Rate: 3200 MT/s

VirtualMemory physical capacity: 8588881920 num_ppages: 2096895
VirtualMemory page size: 4096 log2_page_size: 12

CPU 0 runs traces/444.namd-426B.champsimtrace.xz
CPU 1 runs traces/444.namd-426B.champsimtrace.xz
CPU 2 runs traces/444.namd-426B.champsimtrace.xz
CPU 3 runs traces/444.namd-426B.champsimtrace.xz
CPU 0 Bimodal branch predictor
Basic BTB sets: 1024 ways: 8 indirect buffer size: 4096 RAS size: 64
CPU 1 Bimodal branch predictor
Basic BTB sets: 1024 ways: 8 indirect buffer size: 4096 RAS size: 64
CPU 2 Bimodal branch predictor
Basic BTB sets: 1024 ways: 8 indirect buffer size: 4096 RAS size: 64
CPU 3 Bimodal branch predictor
Basic BTB sets: 1024 ways: 8 indirect buffer size: 4096 RAS size: 64

Warmup complete CPU 0 instructions: 92 cycles: 83 (Simulation time: 0 hr 0 min 2 sec) 
Warmup complete CPU 1 instructions: 1 cycles: 83 (Simulation time: 0 hr 0 min 2 sec) 
Warmup complete CPU 2 instructions: 1 cycles: 83 (Simulation time: 0 hr 0 min 2 sec) 
Warmup complete CPU 3 instructions: 1 cycles: 83 (Simulation time: 0 hr 0 min 2 sec) 

Heartbeat CPU 0 instructions: 10000001 cycles: 4440902 heartbeat IPC: 2.2518 cumulative IPC: 2.25182 (Simulation time: 1 hr 33 min 32 sec) 
Heartbeat CPU 1 instructions: 10000004 cycles: 4440933 heartbeat IPC: 2.25178 cumulative IPC: 2.25182 (Simulation time: 1 hr 33 min 32 sec) 
Heartbeat CPU 2 instructions: 10000004 cycles: 4440933 heartbeat IPC: 2.25178 cumulative IPC: 2.25182 (Simulation time: 1 hr 33 min 32 sec) 
Heartbeat CPU 3 instructions: 10000004 cycles: 4440933 heartbeat IPC: 2.25178 cumulative IPC: 2.25182 (Simulation time: 1 hr 33 min 32 sec) 
Heartbeat CPU 0 instructions: 20000000 cycles: 9119813 heartbeat IPC: 2.13725 cumulative IPC: 2.19304 (Simulation time: 2 hr 26 min 55 sec) 
Heartbeat CPU 1 instructions: 20000000 cycles: 9119844 heartbeat IPC: 2.13725 cumulative IPC: 2.19304 (Simulation time: 2 hr 26 min 55 sec) 
Heartbeat CPU 2 instructions: 20000000 cycles: 9119844 heartbeat IPC: 2.13725 cumulative IPC: 2.19304 (Simulation time: 2 hr 26 min 55 sec) 
Heartbeat CPU 3 instructions: 20000000 cycles: 9119844 heartbeat IPC: 2.13725 cumulative IPC: 2.19304 (Simulation time: 2 hr 26 min 55 sec) 
Heartbeat CPU 0 instructions: 30000004 cycles: 13748619 heartbeat IPC: 2.16039 cumulative IPC: 2.18204 (Simulation time: 3 hr 28 min 33 sec) 
Heartbeat CPU 1 instructions: 30000002 cycles: 13748649 heartbeat IPC: 2.16039 cumulative IPC: 2.18205 (Simulation time: 3 hr 28 min 33 sec) 
Heartbeat CPU 2 instructions: 30000002 cycles: 13748649 heartbeat IPC: 2.16039 cumulative IPC: 2.18205 (Simulation time: 3 hr 28 min 33 sec) 
Heartbeat CPU 3 instructions: 30000002 cycles: 13748649 heartbeat IPC: 2.16039 cumulative IPC: 2.18205 (Simulation time: 3 hr 28 min 33 sec) 
Heartbeat CPU 0 instructions: 40000001 cycles: 18215991 heartbeat IPC: 2.23845 cumulative IPC: 2.19588 (Simulation time: 4 hr 55 min 33 sec) 
Heartbeat CPU 1 instructions: 40000002 cycles: 18216032 heartbeat IPC: 2.23845 cumulative IPC: 2.19588 (Simulation time: 4 hr 55 min 33 sec) 
Heartbeat CPU 2 instructions: 40000002 cycles: 18216032 heartbeat IPC: 2.23845 cumulative IPC: 2.19588 (Simulation time: 4 hr 55 min 33 sec) 
Heartbeat CPU 3 instructions: 40000002 cycles: 18216032 heartbeat IPC: 2.23845 cumulative IPC: 2.19588 (Simulation time: 4 hr 55 min 33 sec) 
Heartbeat CPU 0 instructions: 50000000 cycles: 22583397 heartbeat IPC: 2.28969 cumulative IPC: 2.21402 (Simulation time: 6 hr 28 min 27 sec) 
Heartbeat CPU 1 instructions: 50000000 cycles: 22583429 heartbeat IPC: 2.28969 cumulative IPC: 2.21402 (Simulation time: 6 hr 28 min 27 sec) 
Heartbeat CPU 2 instructions: 50000000 cycles: 22583429 heartbeat IPC: 2.28969 cumulative IPC: 2.21402 (Simulation time: 6 hr 28 min 27 sec) 
Heartbeat CPU 3 instructions: 50000000 cycles: 22583429 heartbeat IPC: 2.28969 cumulative IPC: 2.21402 (Simulation time: 6 hr 28 min 27 sec) 
Heartbeat CPU 0 instructions: 60000001 cycles: 27110243 heartbeat IPC: 2.20904 cumulative IPC: 2.21319 (Simulation time: 7 hr 52 min 44 sec) 
Heartbeat CPU 1 instructions: 60000001 cycles: 27110275 heartbeat IPC: 2.20904 cumulative IPC: 2.21319 (Simulation time: 7 hr 52 min 44 sec) 
Heartbeat CPU 2 instructions: 60000001 cycles: 27110275 heartbeat IPC: 2.20904 cumulative IPC: 2.21319 (Simulation time: 7 hr 52 min 44 sec) 
Heartbeat CPU 3 instructions: 60000001 cycles: 27110275 heartbeat IPC: 2.20904 cumulative IPC: 2.21319 (Simulation time: 7 hr 52 min 44 sec) 
Heartbeat CPU 0 instructions: 70000001 cycles: 31675490 heartbeat IPC: 2.19046 cumulative IPC: 2.20991 (Simulation time: 9 hr 9 min 27 sec) 
Heartbeat CPU 1 instructions: 70000002 cycles: 31675739 heartbeat IPC: 2.19036 cumulative IPC: 2.2099 (Simulation time: 9 hr 9 min 28 sec) 
Heartbeat CPU 2 instructions: 70000002 cycles: 31675739 heartbeat IPC: 2.19036 cumulative IPC: 2.2099 (Simulation time: 9 hr 9 min 28 sec) 
Heartbeat CPU 3 instructions: 70000002 cycles: 31675739 heartbeat IPC: 2.19036 cumulative IPC: 2.2099 (Simulation time: 9 hr 9 min 28 sec) 
Heartbeat CPU 0 instructions: 80000004 cycles: 36308384 heartbeat IPC: 2.15848 cumulative IPC: 2.20335 (Simulation time: 10 hr 20 min 10 sec) 
Heartbeat CPU 1 instructions: 80000001 cycles: 36308446 heartbeat IPC: 2.15857 cumulative IPC: 2.20335 (Simulation time: 10 hr 20 min 10 sec) 
Heartbeat CPU 2 instructions: 80000001 cycles: 36308446 heartbeat IPC: 2.15857 cumulative IPC: 2.20335 (Simulation time: 10 hr 20 min 10 sec) 
Heartbeat CPU 3 instructions: 80000001 cycles: 36308446 heartbeat IPC: 2.15857 cumulative IPC: 2.20335 (Simulation time: 10 hr 20 min 10 sec) 
Heartbeat CPU 0 instructions: 90000004 cycles: 41100316 heartbeat IPC: 2.08684 cumulative IPC: 2.18977 (Simulation time: 11 hr 26 min 42 sec) 
Heartbeat CPU 1 instructions: 90000004 cycles: 41100389 heartbeat IPC: 2.08684 cumulative IPC: 2.18976 (Simulation time: 11 hr 26 min 42 sec) 
Heartbeat CPU 2 instructions: 90000004 cycles: 41100389 heartbeat IPC: 2.08684 cumulative IPC: 2.18976 (Simulation time: 11 hr 26 min 42 sec) 
Heartbeat CPU 3 instructions: 90000004 cycles: 41100389 heartbeat IPC: 2.08684 cumulative IPC: 2.18976 (Simulation time: 11 hr 26 min 42 sec) 
Heartbeat CPU 0 instructions: 100000001 cycles: 45250144 heartbeat IPC: 2.40974 cumulative IPC: 2.20994 (Simulation time: 12 hr 28 min 21 sec) 
Finished CPU 0 instructions: 100000004 cycles: 45250094 cumulative IPC: 2.20994 (Simulation time: 12 hr 28 min 21 sec) 
Heartbeat CPU 1 instructions: 100000002 cycles: 45250319 heartbeat IPC: 2.40968 cumulative IPC: 2.20993 (Simulation time: 12 hr 28 min 21 sec) 
Finished CPU 1 instructions: 100000001 cycles: 45250236 cumulative IPC: 2.20993 (Simulation time: 12 hr 28 min 21 sec) 
Heartbeat CPU 2 instructions: 100000002 cycles: 45250319 heartbeat IPC: 2.40968 cumulative IPC: 2.20993 (Simulation time: 12 hr 28 min 21 sec) 
Finished CPU 2 instructions: 100000001 cycles: 45250236 cumulative IPC: 2.20993 (Simulation time: 12 hr 28 min 21 sec) 
Heartbeat CPU 3 instructions: 100000002 cycles: 45250319 heartbeat IPC: 2.40968 cumulative IPC: 2.20993 (Simulation time: 12 hr 28 min 21 sec) 
Finished CPU 3 instructions: 100000001 cycles: 45250236 cumulative IPC: 2.20993 (Simulation time: 12 hr 28 min 21 sec) 

ChampSim completed all CPUs

Total Simulation Statistics (not including warmup)

CPU 0 cumulative IPC: 1.83516e-318 instructions: 100000004 cycles: 45250094
