
*** ChampSim Multicore Out-of-Order Simulator ***

Warmup Instructions: 0
Simulation Instructions: 100000000
Number of CPUs: 4
Off-chip DRAM Size: 32 GiB Channels: 1 Width: 64-bit Data Rate: 3200 MT/s

VirtualMemory physical capacity: 8588881920 num_ppages: 2096895
VirtualMemory page size: 4096 log2_page_size: 12

CPU 0 runs traces/444.namd-44B.champsimtrace.xz
CPU 1 runs traces/444.namd-44B.champsimtrace.xz
CPU 2 runs traces/444.namd-44B.champsimtrace.xz
CPU 3 runs traces/444.namd-44B.champsimtrace.xz
CPU 0 Bimodal branch predictor
Basic BTB sets: 1024 ways: 8 indirect buffer size: 4096 RAS size: 64
CPU 1 Bimodal branch predictor
Basic BTB sets: 1024 ways: 8 indirect buffer size: 4096 RAS size: 64
CPU 2 Bimodal branch predictor
Basic BTB sets: 1024 ways: 8 indirect buffer size: 4096 RAS size: 64
CPU 3 Bimodal branch predictor
Basic BTB sets: 1024 ways: 8 indirect buffer size: 4096 RAS size: 64

Warmup complete CPU 0 instructions: 4 cycles: 36 (Simulation time: 0 hr 0 min 1 sec) 
Warmup complete CPU 1 instructions: 9 cycles: 36 (Simulation time: 0 hr 0 min 1 sec) 
Warmup complete CPU 2 instructions: 4 cycles: 36 (Simulation time: 0 hr 0 min 1 sec) 
Warmup complete CPU 3 instructions: 4 cycles: 36 (Simulation time: 0 hr 0 min 1 sec) 

Heartbeat CPU 0 instructions: 10000000 cycles: 4810333 heartbeat IPC: 2.07886 cumulative IPC: 2.07887 (Simulation time: 1 hr 26 min 59 sec) 
Heartbeat CPU 1 instructions: 10000000 cycles: 4810335 heartbeat IPC: 2.07886 cumulative IPC: 2.07887 (Simulation time: 1 hr 26 min 59 sec) 
Heartbeat CPU 2 instructions: 10000000 cycles: 4810335 heartbeat IPC: 2.07886 cumulative IPC: 2.07887 (Simulation time: 1 hr 26 min 59 sec) 
Heartbeat CPU 3 instructions: 10000000 cycles: 4810335 heartbeat IPC: 2.07886 cumulative IPC: 2.07887 (Simulation time: 1 hr 26 min 59 sec) 
Heartbeat CPU 0 instructions: 20000004 cycles: 9585943 heartbeat IPC: 2.09397 cumulative IPC: 2.0864 (Simulation time: 2 hr 18 min 44 sec) 
Heartbeat CPU 1 instructions: 20000001 cycles: 9585944 heartbeat IPC: 2.09397 cumulative IPC: 2.0864 (Simulation time: 2 hr 18 min 49 sec) 
Heartbeat CPU 2 instructions: 20000001 cycles: 9585944 heartbeat IPC: 2.09397 cumulative IPC: 2.0864 (Simulation time: 2 hr 18 min 49 sec) 
Heartbeat CPU 3 instructions: 20000001 cycles: 9585944 heartbeat IPC: 2.09397 cumulative IPC: 2.0864 (Simulation time: 2 hr 18 min 49 sec) 
Heartbeat CPU 0 instructions: 30000003 cycles: 14282862 heartbeat IPC: 2.12906 cumulative IPC: 2.10042 (Simulation time: 3 hr 20 min 12 sec) 
Heartbeat CPU 1 instructions: 30000001 cycles: 14282863 heartbeat IPC: 2.12906 cumulative IPC: 2.10042 (Simulation time: 3 hr 20 min 12 sec) 
Heartbeat CPU 2 instructions: 30000001 cycles: 14282863 heartbeat IPC: 2.12906 cumulative IPC: 2.10042 (Simulation time: 3 hr 20 min 12 sec) 
Heartbeat CPU 3 instructions: 30000001 cycles: 14282864 heartbeat IPC: 2.12905 cumulative IPC: 2.10042 (Simulation time: 3 hr 20 min 12 sec) 
Heartbeat CPU 0 instructions: 40000000 cycles: 19091467 heartbeat IPC: 2.0796 cumulative IPC: 2.09518 (Simulation time: 4 hr 47 min 46 sec) 
Heartbeat CPU 1 instructions: 40000003 cycles: 19091469 heartbeat IPC: 2.07961 cumulative IPC: 2.09518 (Simulation time: 4 hr 47 min 46 sec) 
Heartbeat CPU 2 instructions: 40000003 cycles: 19091469 heartbeat IPC: 2.07961 cumulative IPC: 2.09518 (Simulation time: 4 hr 47 min 46 sec) 
Heartbeat CPU 3 instructions: 40000003 cycles: 19091470 heartbeat IPC: 2.07961 cumulative IPC: 2.09518 (Simulation time: 4 hr 47 min 46 sec) 
Heartbeat CPU 0 instructions: 50000004 cycles: 23790077 heartbeat IPC: 2.12829 cumulative IPC: 2.10172 (Simulation time: 6 hr 14 min 22 sec) 
Heartbeat CPU 1 instructions: 50000002 cycles: 23790078 heartbeat IPC: 2.12829 cumulative IPC: 2.10172 (Simulation time: 6 hr 14 min 22 sec) 
Heartbeat CPU 2 instructions: 50000002 cycles: 23790078 heartbeat IPC: 2.12829 cumulative IPC: 2.10172 (Simulation time: 6 hr 14 min 22 sec) 
Heartbeat CPU 3 instructions: 50000002 cycles: 23790079 heartbeat IPC: 2.12829 cumulative IPC: 2.10172 (Simulation time: 6 hr 14 min 22 sec) 
Heartbeat CPU 0 instructions: 60000001 cycles: 28541015 heartbeat IPC: 2.10485 cumulative IPC: 2.10224 (Simulation time: 7 hr 25 min 16 sec) 
Heartbeat CPU 1 instructions: 60000002 cycles: 28541117 heartbeat IPC: 2.1048 cumulative IPC: 2.10223 (Simulation time: 7 hr 25 min 18 sec) 
Heartbeat CPU 2 instructions: 60000002 cycles: 28541127 heartbeat IPC: 2.1048 cumulative IPC: 2.10223 (Simulation time: 7 hr 25 min 18 sec) 
Heartbeat CPU 3 instructions: 60000002 cycles: 28541127 heartbeat IPC: 2.1048 cumulative IPC: 2.10223 (Simulation time: 7 hr 25 min 18 sec) 
Heartbeat CPU 0 instructions: 70000000 cycles: 33216145 heartbeat IPC: 2.13898 cumulative IPC: 2.10741 (Simulation time: 8 hr 42 min 53 sec) 
Heartbeat CPU 1 instructions: 70000002 cycles: 33216146 heartbeat IPC: 2.13902 cumulative IPC: 2.10741 (Simulation time: 8 hr 42 min 53 sec) 
Heartbeat CPU 2 instructions: 70000002 cycles: 33216146 heartbeat IPC: 2.13903 cumulative IPC: 2.10741 (Simulation time: 8 hr 42 min 53 sec) 
Heartbeat CPU 3 instructions: 70000003 cycles: 33216148 heartbeat IPC: 2.13903 cumulative IPC: 2.10741 (Simulation time: 8 hr 42 min 53 sec) 
Heartbeat CPU 1 instructions: 80000000 cycles: 37956510 heartbeat IPC: 2.10954 cumulative IPC: 2.10768 (Simulation time: 9 hr 49 min 46 sec) 
Heartbeat CPU 2 instructions: 80000000 cycles: 37956510 heartbeat IPC: 2.10954 cumulative IPC: 2.10768 (Simulation time: 9 hr 49 min 46 sec) 
Heartbeat CPU 0 instructions: 80000000 cycles: 37956514 heartbeat IPC: 2.10954 cumulative IPC: 2.10768 (Simulation time: 9 hr 49 min 46 sec) 
Heartbeat CPU 3 instructions: 80000003 cycles: 37956517 heartbeat IPC: 2.10954 cumulative IPC: 2.10768 (Simulation time: 9 hr 49 min 46 sec) 
Heartbeat CPU 0 instructions: 90000001 cycles: 42617926 heartbeat IPC: 2.14527 cumulative IPC: 2.11179 (Simulation time: 10 hr 52 min 51 sec) 
Heartbeat CPU 1 instructions: 90000001 cycles: 42617981 heartbeat IPC: 2.14525 cumulative IPC: 2.11179 (Simulation time: 10 hr 52 min 51 sec) 
Heartbeat CPU 2 instructions: 90000001 cycles: 42617996 heartbeat IPC: 2.14524 cumulative IPC: 2.11179 (Simulation time: 10 hr 52 min 51 sec) 
Heartbeat CPU 3 instructions: 90000001 cycles: 42617999 heartbeat IPC: 2.14524 cumulative IPC: 2.11179 (Simulation time: 10 hr 52 min 51 sec) 
Heartbeat CPU 0 instructions: 100000004 cycles: 47319887 heartbeat IPC: 2.12677 cumulative IPC: 2.11328 (Simulation time: 11 hr 53 min 25 sec) 
Finished CPU 0 instructions: 100000000 cycles: 47319851 cumulative IPC: 2.11328 (Simulation time: 11 hr 53 min 25 sec) 
Heartbeat CPU 1 instructions: 100000002 cycles: 47319888 heartbeat IPC: 2.1268 cumulative IPC: 2.11328 (Simulation time: 11 hr 53 min 25 sec) 
Heartbeat CPU 2 instructions: 100000002 cycles: 47319888 heartbeat IPC: 2.1268 cumulative IPC: 2.11328 (Simulation time: 11 hr 53 min 25 sec) 
Finished CPU 2 instructions: 100000003 cycles: 47319853 cumulative IPC: 2.11328 (Simulation time: 11 hr 53 min 25 sec) 
Heartbeat CPU 3 instructions: 100000002 cycles: 47319889 heartbeat IPC: 2.1268 cumulative IPC: 2.11328 (Simulation time: 11 hr 53 min 25 sec) 
Finished CPU 1 instructions: 100000003 cycles: 47319854 cumulative IPC: 2.11328 (Simulation time: 11 hr 53 min 25 sec) 
Finished CPU 3 instructions: 100000003 cycles: 47319854 cumulative IPC: 2.11328 (Simulation time: 11 hr 53 min 25 sec) 

ChampSim completed all CPUs

Total Simulation Statistics (not including warmup)

CPU 0 cumulative IPC: 1.83516e-318 instructions: 100000000 cycles: 47319851
