
*** ChampSim Multicore Out-of-Order Simulator ***

Warmup Instructions: 0
Simulation Instructions: 100000000
Number of CPUs: 4
Off-chip DRAM Size: 8 GiB Channels: 1 Width: 64-bit Data Rate: 3200 MT/s

VirtualMemory physical capacity: 8588881920 num_ppages: 2096895
VirtualMemory page size: 4096 log2_page_size: 12

CPU 0 runs traces/444.namd-166B.champsimtrace.xz
CPU 1 runs traces/444.namd-166B.champsimtrace.xz
CPU 2 runs traces/444.namd-166B.champsimtrace.xz
CPU 3 runs traces/444.namd-166B.champsimtrace.xz
CPU 0 Bimodal branch predictor
Basic BTB sets: 1024 ways: 8 indirect buffer size: 4096 RAS size: 64
CPU 1 Bimodal branch predictor
Basic BTB sets: 1024 ways: 8 indirect buffer size: 4096 RAS size: 64
CPU 2 Bimodal branch predictor
Basic BTB sets: 1024 ways: 8 indirect buffer size: 4096 RAS size: 64
CPU 3 Bimodal branch predictor
Basic BTB sets: 1024 ways: 8 indirect buffer size: 4096 RAS size: 64

Warmup complete CPU 0 instructions: 6 cycles: 36 (Simulation time: 0 hr 0 min 1 sec) 
Warmup complete CPU 1 instructions: 8 cycles: 36 (Simulation time: 0 hr 0 min 1 sec) 
Warmup complete CPU 2 instructions: 4 cycles: 36 (Simulation time: 0 hr 0 min 1 sec) 
Warmup complete CPU 3 instructions: 8 cycles: 36 (Simulation time: 0 hr 0 min 1 sec) 

Heartbeat CPU 0 instructions: 10000003 cycles: 5427483 heartbeat IPC: 1.84248 cumulative IPC: 1.84249 (Simulation time: 1 hr 25 min 33 sec) 
Heartbeat CPU 1 instructions: 10000004 cycles: 5427487 heartbeat IPC: 1.84247 cumulative IPC: 1.84248 (Simulation time: 1 hr 25 min 33 sec) 
Heartbeat CPU 2 instructions: 10000004 cycles: 5427487 heartbeat IPC: 1.84247 cumulative IPC: 1.84249 (Simulation time: 1 hr 25 min 33 sec) 
Heartbeat CPU 3 instructions: 10000004 cycles: 5427487 heartbeat IPC: 1.84247 cumulative IPC: 1.84248 (Simulation time: 1 hr 25 min 33 sec) 
Heartbeat CPU 0 instructions: 20000000 cycles: 10755827 heartbeat IPC: 1.87676 cumulative IPC: 1.85946 (Simulation time: 2 hr 36 min 43 sec) 
Heartbeat CPU 1 instructions: 20000004 cycles: 10755996 heartbeat IPC: 1.8767 cumulative IPC: 1.85943 (Simulation time: 2 hr 36 min 43 sec) 
Heartbeat CPU 2 instructions: 20000004 cycles: 10756058 heartbeat IPC: 1.87668 cumulative IPC: 1.85942 (Simulation time: 2 hr 36 min 43 sec) 
Heartbeat CPU 3 instructions: 20000003 cycles: 10756076 heartbeat IPC: 1.87667 cumulative IPC: 1.85942 (Simulation time: 2 hr 36 min 43 sec) 
Heartbeat CPU 0 instructions: 30000004 cycles: 15319057 heartbeat IPC: 2.19143 cumulative IPC: 1.95835 (Simulation time: 3 hr 35 min 35 sec) 
Heartbeat CPU 1 instructions: 30000002 cycles: 15319164 heartbeat IPC: 2.19146 cumulative IPC: 1.95834 (Simulation time: 3 hr 35 min 35 sec) 
Heartbeat CPU 2 instructions: 30000002 cycles: 15319164 heartbeat IPC: 2.19149 cumulative IPC: 1.95834 (Simulation time: 3 hr 35 min 35 sec) 
Heartbeat CPU 3 instructions: 30000002 cycles: 15319164 heartbeat IPC: 2.1915 cumulative IPC: 1.95834 (Simulation time: 3 hr 35 min 35 sec) 
Heartbeat CPU 0 instructions: 40000000 cycles: 20472810 heartbeat IPC: 1.94033 cumulative IPC: 1.95381 (Simulation time: 4 hr 47 min 41 sec) 
Heartbeat CPU 1 instructions: 40000000 cycles: 20472811 heartbeat IPC: 1.94037 cumulative IPC: 1.95381 (Simulation time: 4 hr 47 min 41 sec) 
Heartbeat CPU 2 instructions: 40000000 cycles: 20472811 heartbeat IPC: 1.94037 cumulative IPC: 1.95381 (Simulation time: 4 hr 47 min 41 sec) 
Heartbeat CPU 3 instructions: 40000000 cycles: 20472811 heartbeat IPC: 1.94037 cumulative IPC: 1.95381 (Simulation time: 4 hr 47 min 41 sec) 
Heartbeat CPU 0 instructions: 50000002 cycles: 24863374 heartbeat IPC: 2.27761 cumulative IPC: 2.01099 (Simulation time: 6 hr 2 min 54 sec) 
Heartbeat CPU 2 instructions: 50000001 cycles: 24863496 heartbeat IPC: 2.27755 cumulative IPC: 2.01098 (Simulation time: 6 hr 2 min 54 sec) 
Heartbeat CPU 1 instructions: 50000001 cycles: 24863528 heartbeat IPC: 2.27753 cumulative IPC: 2.01098 (Simulation time: 6 hr 2 min 54 sec) 
Heartbeat CPU 3 instructions: 50000001 cycles: 24863528 heartbeat IPC: 2.27753 cumulative IPC: 2.01098 (Simulation time: 6 hr 2 min 54 sec) 
Heartbeat CPU 0 instructions: 60000002 cycles: 30096529 heartbeat IPC: 1.91089 cumulative IPC: 1.99359 (Simulation time: 7 hr 15 min 14 sec) 
Heartbeat CPU 1 instructions: 60000002 cycles: 30096529 heartbeat IPC: 1.91095 cumulative IPC: 1.99359 (Simulation time: 7 hr 15 min 14 sec) 
Heartbeat CPU 2 instructions: 60000002 cycles: 30096529 heartbeat IPC: 1.91094 cumulative IPC: 1.99359 (Simulation time: 7 hr 15 min 14 sec) 
Heartbeat CPU 3 instructions: 60000002 cycles: 30096529 heartbeat IPC: 1.91095 cumulative IPC: 1.99359 (Simulation time: 7 hr 15 min 14 sec) 
Heartbeat CPU 0 instructions: 70000001 cycles: 35214437 heartbeat IPC: 1.95392 cumulative IPC: 1.98782 (Simulation time: 8 hr 28 min 29 sec) 
Heartbeat CPU 1 instructions: 70000001 cycles: 35214494 heartbeat IPC: 1.9539 cumulative IPC: 1.98782 (Simulation time: 8 hr 28 min 29 sec) 
Heartbeat CPU 2 instructions: 70000001 cycles: 35214500 heartbeat IPC: 1.9539 cumulative IPC: 1.98782 (Simulation time: 8 hr 28 min 29 sec) 
Heartbeat CPU 3 instructions: 70000001 cycles: 35214500 heartbeat IPC: 1.9539 cumulative IPC: 1.98782 (Simulation time: 8 hr 28 min 29 sec) 
Heartbeat CPU 0 instructions: 80000000 cycles: 39885391 heartbeat IPC: 2.14089 cumulative IPC: 2.00575 (Simulation time: 9 hr 35 min 20 sec) 
Heartbeat CPU 3 instructions: 80000001 cycles: 39885480 heartbeat IPC: 2.14088 cumulative IPC: 2.00574 (Simulation time: 9 hr 35 min 20 sec) 
Heartbeat CPU 1 instructions: 80000002 cycles: 39885558 heartbeat IPC: 2.14084 cumulative IPC: 2.00574 (Simulation time: 9 hr 35 min 20 sec) 
Heartbeat CPU 2 instructions: 80000003 cycles: 39885581 heartbeat IPC: 2.14083 cumulative IPC: 2.00574 (Simulation time: 9 hr 35 min 20 sec) 
Heartbeat CPU 0 instructions: 90000000 cycles: 44818837 heartbeat IPC: 2.02698 cumulative IPC: 2.00809 (Simulation time: 10 hr 38 min 1 sec) 
Heartbeat CPU 1 instructions: 90000000 cycles: 44818884 heartbeat IPC: 2.02703 cumulative IPC: 2.00808 (Simulation time: 10 hr 38 min 1 sec) 
Heartbeat CPU 2 instructions: 90000003 cycles: 44818958 heartbeat IPC: 2.02701 cumulative IPC: 2.00808 (Simulation time: 10 hr 38 min 1 sec) 
Heartbeat CPU 3 instructions: 90000003 cycles: 44818958 heartbeat IPC: 2.02697 cumulative IPC: 2.00808 (Simulation time: 10 hr 38 min 1 sec) 
Heartbeat CPU 0 instructions: 100000000 cycles: 49647618 heartbeat IPC: 2.07092 cumulative IPC: 2.0142 (Simulation time: 11 hr 36 min 43 sec) 
Finished CPU 0 instructions: 100000004 cycles: 49647584 cumulative IPC: 2.0142 (Simulation time: 11 hr 36 min 43 sec) 
Heartbeat CPU 1 instructions: 100000004 cycles: 49647746 heartbeat IPC: 2.07088 cumulative IPC: 2.01419 (Simulation time: 11 hr 36 min 43 sec) 
Heartbeat CPU 2 instructions: 100000004 cycles: 49647746 heartbeat IPC: 2.07091 cumulative IPC: 2.01419 (Simulation time: 11 hr 36 min 43 sec) 
Finished CPU 2 instructions: 100000000 cycles: 49647710 cumulative IPC: 2.01419 (Simulation time: 11 hr 36 min 43 sec) 
Heartbeat CPU 3 instructions: 100000004 cycles: 49647746 heartbeat IPC: 2.07091 cumulative IPC: 2.01419 (Simulation time: 11 hr 36 min 43 sec) 
Finished CPU 1 instructions: 100000001 cycles: 49647711 cumulative IPC: 2.01419 (Simulation time: 11 hr 36 min 43 sec) 
Finished CPU 3 instructions: 100000001 cycles: 49647711 cumulative IPC: 2.01419 (Simulation time: 11 hr 36 min 43 sec) 

ChampSim completed all CPUs

Total Simulation Statistics (not including warmup)

CPU 0 cumulative IPC: 1.83516e-318 instructions: 100000004 cycles: 49647584
