
*** ChampSim Multicore Out-of-Order Simulator ***

Warmup Instructions: 0
Simulation Instructions: 5000000
Number of CPUs: 64
Off-chip DRAM Size: 512 MiB Channels: 1 Width: 64-bit Data Rate: 3200 MT/s

VirtualMemory physical capacity: 8588881920 num_ppages: 2096895
VirtualMemory page size: 4096 log2_page_size: 12

CPU 0 runs traces/649.fotonik3d_s-1B.champsimtrace.xz
CPU 1 runs traces/649.fotonik3d_s-1B.champsimtrace.xz
CPU 2 runs traces/649.fotonik3d_s-1B.champsimtrace.xz
CPU 3 runs traces/649.fotonik3d_s-1B.champsimtrace.xz
CPU 4 runs traces/649.fotonik3d_s-1B.champsimtrace.xz
CPU 5 runs traces/649.fotonik3d_s-1B.champsimtrace.xz
CPU 6 runs traces/649.fotonik3d_s-1B.champsimtrace.xz
CPU 7 runs traces/649.fotonik3d_s-1B.champsimtrace.xz
CPU 8 runs traces/649.fotonik3d_s-1B.champsimtrace.xz
CPU 9 runs traces/649.fotonik3d_s-1B.champsimtrace.xz
CPU 10 runs traces/649.fotonik3d_s-1B.champsimtrace.xz
CPU 11 runs traces/649.fotonik3d_s-1B.champsimtrace.xz
CPU 12 runs traces/649.fotonik3d_s-1B.champsimtrace.xz
CPU 13 runs traces/649.fotonik3d_s-1B.champsimtrace.xz
CPU 14 runs traces/649.fotonik3d_s-1B.champsimtrace.xz
CPU 15 runs traces/649.fotonik3d_s-1B.champsimtrace.xz
CPU 16 runs traces/649.fotonik3d_s-1B.champsimtrace.xz
CPU 17 runs traces/649.fotonik3d_s-1B.champsimtrace.xz
CPU 18 runs traces/649.fotonik3d_s-1B.champsimtrace.xz
CPU 19 runs traces/649.fotonik3d_s-1B.champsimtrace.xz
CPU 20 runs traces/649.fotonik3d_s-1B.champsimtrace.xz
CPU 21 runs traces/649.fotonik3d_s-1B.champsimtrace.xz
CPU 22 runs traces/649.fotonik3d_s-1B.champsimtrace.xz
CPU 23 runs traces/649.fotonik3d_s-1B.champsimtrace.xz
CPU 24 runs traces/649.fotonik3d_s-1B.champsimtrace.xz
CPU 25 runs traces/649.fotonik3d_s-1B.champsimtrace.xz
CPU 26 runs traces/649.fotonik3d_s-1B.champsimtrace.xz
CPU 27 runs traces/649.fotonik3d_s-1B.champsimtrace.xz
CPU 28 runs traces/649.fotonik3d_s-1B.champsimtrace.xz
CPU 29 runs traces/649.fotonik3d_s-1B.champsimtrace.xz
CPU 30 runs traces/649.fotonik3d_s-1B.champsimtrace.xz
CPU 31 runs traces/649.fotonik3d_s-1B.champsimtrace.xz
CPU 32 runs traces/649.fotonik3d_s-1B.champsimtrace.xz
CPU 33 runs traces/649.fotonik3d_s-1B.champsimtrace.xz
CPU 34 runs traces/649.fotonik3d_s-1B.champsimtrace.xz
CPU 35 runs traces/649.fotonik3d_s-1B.champsimtrace.xz
CPU 36 runs traces/649.fotonik3d_s-1B.champsimtrace.xz
CPU 37 runs traces/649.fotonik3d_s-1B.champsimtrace.xz
CPU 38 runs traces/649.fotonik3d_s-1B.champsimtrace.xz
CPU 39 runs traces/649.fotonik3d_s-1B.champsimtrace.xz
CPU 40 runs traces/649.fotonik3d_s-1B.champsimtrace.xz
CPU 41 runs traces/649.fotonik3d_s-1B.champsimtrace.xz
CPU 42 runs traces/649.fotonik3d_s-1B.champsimtrace.xz
CPU 43 runs traces/649.fotonik3d_s-1B.champsimtrace.xz
CPU 44 runs traces/649.fotonik3d_s-1B.champsimtrace.xz
CPU 45 runs traces/649.fotonik3d_s-1B.champsimtrace.xz
CPU 46 runs traces/649.fotonik3d_s-1B.champsimtrace.xz
CPU 47 runs traces/649.fotonik3d_s-1B.champsimtrace.xz
CPU 48 runs traces/649.fotonik3d_s-1B.champsimtrace.xz
CPU 49 runs traces/649.fotonik3d_s-1B.champsimtrace.xz
CPU 50 runs traces/649.fotonik3d_s-1B.champsimtrace.xz
CPU 51 runs traces/649.fotonik3d_s-1B.champsimtrace.xz
CPU 52 runs traces/649.fotonik3d_s-1B.champsimtrace.xz
CPU 53 runs traces/649.fotonik3d_s-1B.champsimtrace.xz
CPU 54 runs traces/649.fotonik3d_s-1B.champsimtrace.xz
CPU 55 runs traces/649.fotonik3d_s-1B.champsimtrace.xz
CPU 56 runs traces/649.fotonik3d_s-1B.champsimtrace.xz
CPU 57 runs traces/649.fotonik3d_s-1B.champsimtrace.xz
CPU 58 runs traces/649.fotonik3d_s-1B.champsimtrace.xz
CPU 59 runs traces/649.fotonik3d_s-1B.champsimtrace.xz
CPU 60 runs traces/649.fotonik3d_s-1B.champsimtrace.xz
CPU 61 runs traces/649.fotonik3d_s-1B.champsimtrace.xz
CPU 62 runs traces/649.fotonik3d_s-1B.champsimtrace.xz
CPU 63 runs traces/649.fotonik3d_s-1B.champsimtrace.xz
CPU 0 Bimodal branch predictor
Basic BTB sets: 1024 ways: 8 indirect buffer size: 4096 RAS size: 64
CPU 1 Bimodal branch predictor
Basic BTB sets: 1024 ways: 8 indirect buffer size: 4096 RAS size: 64
CPU 2 Bimodal branch predictor
Basic BTB sets: 1024 ways: 8 indirect buffer size: 4096 RAS size: 64
CPU 3 Bimodal branch predictor
Basic BTB sets: 1024 ways: 8 indirect buffer size: 4096 RAS size: 64
CPU 4 Bimodal branch predictor
Basic BTB sets: 1024 ways: 8 indirect buffer size: 4096 RAS size: 64
CPU 5 Bimodal branch predictor
Basic BTB sets: 1024 ways: 8 indirect buffer size: 4096 RAS size: 64
CPU 6 Bimodal branch predictor
Basic BTB sets: 1024 ways: 8 indirect buffer size: 4096 RAS size: 64
CPU 7 Bimodal branch predictor
Basic BTB sets: 1024 ways: 8 indirect buffer size: 4096 RAS size: 64
CPU 8 Bimodal branch predictor
Basic BTB sets: 1024 ways: 8 indirect buffer size: 4096 RAS size: 64
CPU 9 Bimodal branch predictor
Basic BTB sets: 1024 ways: 8 indirect buffer size: 4096 RAS size: 64
CPU 10 Bimodal branch predictor
Basic BTB sets: 1024 ways: 8 indirect buffer size: 4096 RAS size: 64
CPU 11 Bimodal branch predictor
Basic BTB sets: 1024 ways: 8 indirect buffer size: 4096 RAS size: 64
CPU 12 Bimodal branch predictor
Basic BTB sets: 1024 ways: 8 indirect buffer size: 4096 RAS size: 64
CPU 13 Bimodal branch predictor
Basic BTB sets: 1024 ways: 8 indirect buffer size: 4096 RAS size: 64
CPU 14 Bimodal branch predictor
Basic BTB sets: 1024 ways: 8 indirect buffer size: 4096 RAS size: 64
CPU 15 Bimodal branch predictor
Basic BTB sets: 1024 ways: 8 indirect buffer size: 4096 RAS size: 64
CPU 16 Bimodal branch predictor
Basic BTB sets: 1024 ways: 8 indirect buffer size: 4096 RAS size: 64
CPU 17 Bimodal branch predictor
Basic BTB sets: 1024 ways: 8 indirect buffer size: 4096 RAS size: 64
CPU 18 Bimodal branch predictor
Basic BTB sets: 1024 ways: 8 indirect buffer size: 4096 RAS size: 64
CPU 19 Bimodal branch predictor
Basic BTB sets: 1024 ways: 8 indirect buffer size: 4096 RAS size: 64
CPU 20 Bimodal branch predictor
Basic BTB sets: 1024 ways: 8 indirect buffer size: 4096 RAS size: 64
CPU 21 Bimodal branch predictor
Basic BTB sets: 1024 ways: 8 indirect buffer size: 4096 RAS size: 64
CPU 22 Bimodal branch predictor
Basic BTB sets: 1024 ways: 8 indirect buffer size: 4096 RAS size: 64
CPU 23 Bimodal branch predictor
Basic BTB sets: 1024 ways: 8 indirect buffer size: 4096 RAS size: 64
CPU 24 Bimodal branch predictor
Basic BTB sets: 1024 ways: 8 indirect buffer size: 4096 RAS size: 64
CPU 25 Bimodal branch predictor
Basic BTB sets: 1024 ways: 8 indirect buffer size: 4096 RAS size: 64
CPU 26 Bimodal branch predictor
Basic BTB sets: 1024 ways: 8 indirect buffer size: 4096 RAS size: 64
CPU 27 Bimodal branch predictor
Basic BTB sets: 1024 ways: 8 indirect buffer size: 4096 RAS size: 64
CPU 28 Bimodal branch predictor
Basic BTB sets: 1024 ways: 8 indirect buffer size: 4096 RAS size: 64
CPU 29 Bimodal branch predictor
Basic BTB sets: 1024 ways: 8 indirect buffer size: 4096 RAS size: 64
CPU 30 Bimodal branch predictor
Basic BTB sets: 1024 ways: 8 indirect buffer size: 4096 RAS size: 64
CPU 31 Bimodal branch predictor
Basic BTB sets: 1024 ways: 8 indirect buffer size: 4096 RAS size: 64
CPU 32 Bimodal branch predictor
Basic BTB sets: 1024 ways: 8 indirect buffer size: 4096 RAS size: 64
CPU 33 Bimodal branch predictor
Basic BTB sets: 1024 ways: 8 indirect buffer size: 4096 RAS size: 64
CPU 34 Bimodal branch predictor
Basic BTB sets: 1024 ways: 8 indirect buffer size: 4096 RAS size: 64
CPU 35 Bimodal branch predictor
Basic BTB sets: 1024 ways: 8 indirect buffer size: 4096 RAS size: 64
CPU 36 Bimodal branch predictor
Basic BTB sets: 1024 ways: 8 indirect buffer size: 4096 RAS size: 64
CPU 37 Bimodal branch predictor
Basic BTB sets: 1024 ways: 8 indirect buffer size: 4096 RAS size: 64
CPU 38 Bimodal branch predictor
Basic BTB sets: 1024 ways: 8 indirect buffer size: 4096 RAS size: 64
CPU 39 Bimodal branch predictor
Basic BTB sets: 1024 ways: 8 indirect buffer size: 4096 RAS size: 64
CPU 40 Bimodal branch predictor
Basic BTB sets: 1024 ways: 8 indirect buffer size: 4096 RAS size: 64
CPU 41 Bimodal branch predictor
Basic BTB sets: 1024 ways: 8 indirect buffer size: 4096 RAS size: 64
CPU 42 Bimodal branch predictor
Basic BTB sets: 1024 ways: 8 indirect buffer size: 4096 RAS size: 64
CPU 43 Bimodal branch predictor
Basic BTB sets: 1024 ways: 8 indirect buffer size: 4096 RAS size: 64
CPU 44 Bimodal branch predictor
Basic BTB sets: 1024 ways: 8 indirect buffer size: 4096 RAS size: 64
CPU 45 Bimodal branch predictor
Basic BTB sets: 1024 ways: 8 indirect buffer size: 4096 RAS size: 64
CPU 46 Bimodal branch predictor
Basic BTB sets: 1024 ways: 8 indirect buffer size: 4096 RAS size: 64
CPU 47 Bimodal branch predictor
Basic BTB sets: 1024 ways: 8 indirect buffer size: 4096 RAS size: 64
CPU 48 Bimodal branch predictor
Basic BTB sets: 1024 ways: 8 indirect buffer size: 4096 RAS size: 64
CPU 49 Bimodal branch predictor
Basic BTB sets: 1024 ways: 8 indirect buffer size: 4096 RAS size: 64
CPU 50 Bimodal branch predictor
Basic BTB sets: 1024 ways: 8 indirect buffer size: 4096 RAS size: 64
CPU 51 Bimodal branch predictor
Basic BTB sets: 1024 ways: 8 indirect buffer size: 4096 RAS size: 64
CPU 52 Bimodal branch predictor
Basic BTB sets: 1024 ways: 8 indirect buffer size: 4096 RAS size: 64
CPU 53 Bimodal branch predictor
Basic BTB sets: 1024 ways: 8 indirect buffer size: 4096 RAS size: 64
CPU 54 Bimodal branch predictor
Basic BTB sets: 1024 ways: 8 indirect buffer size: 4096 RAS size: 64
CPU 55 Bimodal branch predictor
Basic BTB sets: 1024 ways: 8 indirect buffer size: 4096 RAS size: 64
CPU 56 Bimodal branch predictor
Basic BTB sets: 1024 ways: 8 indirect buffer size: 4096 RAS size: 64
CPU 57 Bimodal branch predictor
Basic BTB sets: 1024 ways: 8 indirect buffer size: 4096 RAS size: 64
CPU 58 Bimodal branch predictor
Basic BTB sets: 1024 ways: 8 indirect buffer size: 4096 RAS size: 64
CPU 59 Bimodal branch predictor
Basic BTB sets: 1024 ways: 8 indirect buffer size: 4096 RAS size: 64
CPU 60 Bimodal branch predictor
Basic BTB sets: 1024 ways: 8 indirect buffer size: 4096 RAS size: 64
CPU 61 Bimodal branch predictor
Basic BTB sets: 1024 ways: 8 indirect buffer size: 4096 RAS size: 64
CPU 62 Bimodal branch predictor
Basic BTB sets: 1024 ways: 8 indirect buffer size: 4096 RAS size: 64
CPU 63 Bimodal branch predictor
Basic BTB sets: 1024 ways: 8 indirect buffer size: 4096 RAS size: 64

Warmup complete CPU 0 instructions: 5 cycles: 40 (Simulation time: 0 hr 0 min 0 sec) 
Warmup complete CPU 1 instructions: 5 cycles: 40 (Simulation time: 0 hr 0 min 0 sec) 
Warmup complete CPU 2 instructions: 5 cycles: 40 (Simulation time: 0 hr 0 min 0 sec) 
Warmup complete CPU 3 instructions: 5 cycles: 40 (Simulation time: 0 hr 0 min 0 sec) 
Warmup complete CPU 4 instructions: 5 cycles: 40 (Simulation time: 0 hr 0 min 0 sec) 
Warmup complete CPU 5 instructions: 5 cycles: 40 (Simulation time: 0 hr 0 min 0 sec) 
Warmup complete CPU 6 instructions: 5 cycles: 40 (Simulation time: 0 hr 0 min 0 sec) 
Warmup complete CPU 7 instructions: 5 cycles: 40 (Simulation time: 0 hr 0 min 0 sec) 
Warmup complete CPU 8 instructions: 5 cycles: 40 (Simulation time: 0 hr 0 min 0 sec) 
Warmup complete CPU 9 instructions: 5 cycles: 40 (Simulation time: 0 hr 0 min 0 sec) 
Warmup complete CPU 10 instructions: 5 cycles: 40 (Simulation time: 0 hr 0 min 0 sec) 
Warmup complete CPU 11 instructions: 5 cycles: 40 (Simulation time: 0 hr 0 min 0 sec) 
Warmup complete CPU 12 instructions: 5 cycles: 40 (Simulation time: 0 hr 0 min 0 sec) 
Warmup complete CPU 13 instructions: 5 cycles: 40 (Simulation time: 0 hr 0 min 0 sec) 
Warmup complete CPU 14 instructions: 5 cycles: 40 (Simulation time: 0 hr 0 min 0 sec) 
Warmup complete CPU 15 instructions: 5 cycles: 40 (Simulation time: 0 hr 0 min 0 sec) 
Warmup complete CPU 16 instructions: 5 cycles: 40 (Simulation time: 0 hr 0 min 0 sec) 
Warmup complete CPU 17 instructions: 5 cycles: 40 (Simulation time: 0 hr 0 min 0 sec) 
Warmup complete CPU 18 instructions: 5 cycles: 40 (Simulation time: 0 hr 0 min 0 sec) 
Warmup complete CPU 19 instructions: 5 cycles: 40 (Simulation time: 0 hr 0 min 0 sec) 
Warmup complete CPU 20 instructions: 5 cycles: 40 (Simulation time: 0 hr 0 min 0 sec) 
Warmup complete CPU 21 instructions: 5 cycles: 40 (Simulation time: 0 hr 0 min 0 sec) 
Warmup complete CPU 22 instructions: 5 cycles: 40 (Simulation time: 0 hr 0 min 0 sec) 
Warmup complete CPU 23 instructions: 5 cycles: 40 (Simulation time: 0 hr 0 min 0 sec) 
Warmup complete CPU 24 instructions: 5 cycles: 40 (Simulation time: 0 hr 0 min 0 sec) 
Warmup complete CPU 25 instructions: 5 cycles: 40 (Simulation time: 0 hr 0 min 0 sec) 
Warmup complete CPU 26 instructions: 5 cycles: 40 (Simulation time: 0 hr 0 min 0 sec) 
Warmup complete CPU 27 instructions: 5 cycles: 40 (Simulation time: 0 hr 0 min 0 sec) 
Warmup complete CPU 28 instructions: 5 cycles: 40 (Simulation time: 0 hr 0 min 0 sec) 
Warmup complete CPU 29 instructions: 5 cycles: 40 (Simulation time: 0 hr 0 min 0 sec) 
Warmup complete CPU 30 instructions: 5 cycles: 40 (Simulation time: 0 hr 0 min 0 sec) 
Warmup complete CPU 31 instructions: 5 cycles: 40 (Simulation time: 0 hr 0 min 0 sec) 
Warmup complete CPU 32 instructions: 5 cycles: 40 (Simulation time: 0 hr 0 min 0 sec) 
Warmup complete CPU 33 instructions: 5 cycles: 40 (Simulation time: 0 hr 0 min 0 sec) 
Warmup complete CPU 34 instructions: 5 cycles: 40 (Simulation time: 0 hr 0 min 0 sec) 
Warmup complete CPU 35 instructions: 5 cycles: 40 (Simulation time: 0 hr 0 min 0 sec) 
Warmup complete CPU 36 instructions: 5 cycles: 40 (Simulation time: 0 hr 0 min 0 sec) 
Warmup complete CPU 37 instructions: 5 cycles: 40 (Simulation time: 0 hr 0 min 0 sec) 
Warmup complete CPU 38 instructions: 5 cycles: 40 (Simulation time: 0 hr 0 min 0 sec) 
Warmup complete CPU 39 instructions: 5 cycles: 40 (Simulation time: 0 hr 0 min 0 sec) 
Warmup complete CPU 40 instructions: 5 cycles: 40 (Simulation time: 0 hr 0 min 0 sec) 
Warmup complete CPU 41 instructions: 5 cycles: 40 (Simulation time: 0 hr 0 min 0 sec) 
Warmup complete CPU 42 instructions: 5 cycles: 40 (Simulation time: 0 hr 0 min 0 sec) 
Warmup complete CPU 43 instructions: 5 cycles: 40 (Simulation time: 0 hr 0 min 0 sec) 
Warmup complete CPU 44 instructions: 5 cycles: 40 (Simulation time: 0 hr 0 min 0 sec) 
Warmup complete CPU 45 instructions: 5 cycles: 40 (Simulation time: 0 hr 0 min 0 sec) 
Warmup complete CPU 46 instructions: 5 cycles: 40 (Simulation time: 0 hr 0 min 0 sec) 
Warmup complete CPU 47 instructions: 5 cycles: 40 (Simulation time: 0 hr 0 min 0 sec) 
Warmup complete CPU 48 instructions: 5 cycles: 40 (Simulation time: 0 hr 0 min 0 sec) 
Warmup complete CPU 49 instructions: 5 cycles: 40 (Simulation time: 0 hr 0 min 0 sec) 
Warmup complete CPU 50 instructions: 5 cycles: 40 (Simulation time: 0 hr 0 min 0 sec) 
Warmup complete CPU 51 instructions: 5 cycles: 40 (Simulation time: 0 hr 0 min 0 sec) 
Warmup complete CPU 52 instructions: 5 cycles: 40 (Simulation time: 0 hr 0 min 0 sec) 
Warmup complete CPU 53 instructions: 5 cycles: 40 (Simulation time: 0 hr 0 min 0 sec) 
Warmup complete CPU 54 instructions: 5 cycles: 40 (Simulation time: 0 hr 0 min 0 sec) 
Warmup complete CPU 55 instructions: 5 cycles: 40 (Simulation time: 0 hr 0 min 0 sec) 
Warmup complete CPU 56 instructions: 5 cycles: 40 (Simulation time: 0 hr 0 min 0 sec) 
Warmup complete CPU 57 instructions: 5 cycles: 40 (Simulation time: 0 hr 0 min 0 sec) 
Warmup complete CPU 58 instructions: 5 cycles: 40 (Simulation time: 0 hr 0 min 0 sec) 
Warmup complete CPU 59 instructions: 5 cycles: 40 (Simulation time: 0 hr 0 min 0 sec) 
Warmup complete CPU 60 instructions: 4 cycles: 40 (Simulation time: 0 hr 0 min 0 sec) 
Warmup complete CPU 61 instructions: 5 cycles: 40 (Simulation time: 0 hr 0 min 0 sec) 
Warmup complete CPU 62 instructions: 5 cycles: 40 (Simulation time: 0 hr 0 min 0 sec) 
Warmup complete CPU 63 instructions: 5 cycles: 40 (Simulation time: 0 hr 0 min 0 sec) 


*** ChampSim Multicore Out-of-Order Simulator ***

Warmup Instructions: 0
Simulation Instructions: 5000000
Number of CPUs: 64
Off-chip DRAM Size: 512 MiB Channels: 1 Width: 64-bit Data Rate: 3200 MT/s

VirtualMemory physical capacity: 8588881920 num_ppages: 2096895
VirtualMemory page size: 4096 log2_page_size: 12

CPU 0 runs traces/649.fotonik3d_s-1B.champsimtrace.xz
CPU 1 runs traces/649.fotonik3d_s-1B.champsimtrace.xz
CPU 2 runs traces/649.fotonik3d_s-1B.champsimtrace.xz
CPU 3 runs traces/649.fotonik3d_s-1B.champsimtrace.xz
CPU 4 runs traces/649.fotonik3d_s-1B.champsimtrace.xz
CPU 5 runs traces/649.fotonik3d_s-1B.champsimtrace.xz
CPU 6 runs traces/649.fotonik3d_s-1B.champsimtrace.xz
CPU 7 runs traces/649.fotonik3d_s-1B.champsimtrace.xz
CPU 8 runs traces/649.fotonik3d_s-1B.champsimtrace.xz
CPU 9 runs traces/649.fotonik3d_s-1B.champsimtrace.xz
CPU 10 runs traces/649.fotonik3d_s-1B.champsimtrace.xz
CPU 11 runs traces/649.fotonik3d_s-1B.champsimtrace.xz
CPU 12 runs traces/649.fotonik3d_s-1B.champsimtrace.xz
CPU 13 runs traces/649.fotonik3d_s-1B.champsimtrace.xz
CPU 14 runs traces/649.fotonik3d_s-1B.champsimtrace.xz
CPU 15 runs traces/649.fotonik3d_s-1B.champsimtrace.xz
CPU 16 runs traces/649.fotonik3d_s-1B.champsimtrace.xz
CPU 17 runs traces/649.fotonik3d_s-1B.champsimtrace.xz
CPU 18 runs traces/649.fotonik3d_s-1B.champsimtrace.xz
CPU 19 runs traces/649.fotonik3d_s-1B.champsimtrace.xz
CPU 20 runs traces/649.fotonik3d_s-1B.champsimtrace.xz
CPU 21 runs traces/649.fotonik3d_s-1B.champsimtrace.xz
CPU 22 runs traces/649.fotonik3d_s-1B.champsimtrace.xz
CPU 23 runs traces/649.fotonik3d_s-1B.champsimtrace.xz
CPU 24 runs traces/649.fotonik3d_s-1B.champsimtrace.xz
CPU 25 runs traces/649.fotonik3d_s-1B.champsimtrace.xz
CPU 26 runs traces/649.fotonik3d_s-1B.champsimtrace.xz
CPU 27 runs traces/649.fotonik3d_s-1B.champsimtrace.xz
CPU 28 runs traces/649.fotonik3d_s-1B.champsimtrace.xz
CPU 29 runs traces/649.fotonik3d_s-1B.champsimtrace.xz
CPU 30 runs traces/649.fotonik3d_s-1B.champsimtrace.xz
CPU 31 runs traces/649.fotonik3d_s-1B.champsimtrace.xz
CPU 32 runs traces/649.fotonik3d_s-1B.champsimtrace.xz
CPU 33 runs traces/649.fotonik3d_s-1B.champsimtrace.xz
CPU 34 runs traces/649.fotonik3d_s-1B.champsimtrace.xz
CPU 35 runs traces/649.fotonik3d_s-1B.champsimtrace.xz
CPU 36 runs traces/649.fotonik3d_s-1B.champsimtrace.xz
CPU 37 runs traces/649.fotonik3d_s-1B.champsimtrace.xz
CPU 38 runs traces/649.fotonik3d_s-1B.champsimtrace.xz
CPU 39 runs traces/649.fotonik3d_s-1B.champsimtrace.xz
CPU 40 runs traces/649.fotonik3d_s-1B.champsimtrace.xz
CPU 41 runs traces/649.fotonik3d_s-1B.champsimtrace.xz
CPU 42 runs traces/649.fotonik3d_s-1B.champsimtrace.xz
CPU 43 runs traces/649.fotonik3d_s-1B.champsimtrace.xz
CPU 44 runs traces/649.fotonik3d_s-1B.champsimtrace.xz
CPU 45 runs traces/649.fotonik3d_s-1B.champsimtrace.xz
CPU 46 runs traces/649.fotonik3d_s-1B.champsimtrace.xz
CPU 47 runs traces/649.fotonik3d_s-1B.champsimtrace.xz
CPU 48 runs traces/649.fotonik3d_s-1B.champsimtrace.xz
CPU 49 runs traces/649.fotonik3d_s-1B.champsimtrace.xz
CPU 50 runs traces/649.fotonik3d_s-1B.champsimtrace.xz
CPU 51 runs traces/649.fotonik3d_s-1B.champsimtrace.xz
CPU 52 runs traces/649.fotonik3d_s-1B.champsimtrace.xz
CPU 53 runs traces/649.fotonik3d_s-1B.champsimtrace.xz
CPU 54 runs traces/649.fotonik3d_s-1B.champsimtrace.xz
CPU 55 runs traces/649.fotonik3d_s-1B.champsimtrace.xz
CPU 56 runs traces/649.fotonik3d_s-1B.champsimtrace.xz
CPU 57 runs traces/649.fotonik3d_s-1B.champsimtrace.xz
CPU 58 runs traces/649.fotonik3d_s-1B.champsimtrace.xz
CPU 59 runs traces/649.fotonik3d_s-1B.champsimtrace.xz
CPU 60 runs traces/649.fotonik3d_s-1B.champsimtrace.xz
CPU 61 runs traces/649.fotonik3d_s-1B.champsimtrace.xz
CPU 62 runs traces/649.fotonik3d_s-1B.champsimtrace.xz
CPU 63 runs traces/649.fotonik3d_s-1B.champsimtrace.xz
CPU 0 Bimodal branch predictor
Basic BTB sets: 1024 ways: 8 indirect buffer size: 4096 RAS size: 64
CPU 1 Bimodal branch predictor
Basic BTB sets: 1024 ways: 8 indirect buffer size: 4096 RAS size: 64
CPU 2 Bimodal branch predictor
Basic BTB sets: 1024 ways: 8 indirect buffer size: 4096 RAS size: 64
CPU 3 Bimodal branch predictor
Basic BTB sets: 1024 ways: 8 indirect buffer size: 4096 RAS size: 64
CPU 4 Bimodal branch predictor
Basic BTB sets: 1024 ways: 8 indirect buffer size: 4096 RAS size: 64
CPU 5 Bimodal branch predictor
Basic BTB sets: 1024 ways: 8 indirect buffer size: 4096 RAS size: 64
CPU 6 Bimodal branch predictor
Basic BTB sets: 1024 ways: 8 indirect buffer size: 4096 RAS size: 64
CPU 7 Bimodal branch predictor
Basic BTB sets: 1024 ways: 8 indirect buffer size: 4096 RAS size: 64
CPU 8 Bimodal branch predictor
Basic BTB sets: 1024 ways: 8 indirect buffer size: 4096 RAS size: 64
CPU 9 Bimodal branch predictor
Basic BTB sets: 1024 ways: 8 indirect buffer size: 4096 RAS size: 64
CPU 10 Bimodal branch predictor
Basic BTB sets: 1024 ways: 8 indirect buffer size: 4096 RAS size: 64
CPU 11 Bimodal branch predictor
Basic BTB sets: 1024 ways: 8 indirect buffer size: 4096 RAS size: 64
CPU 12 Bimodal branch predictor
Basic BTB sets: 1024 ways: 8 indirect buffer size: 4096 RAS size: 64
CPU 13 Bimodal branch predictor
Basic BTB sets: 1024 ways: 8 indirect buffer size: 4096 RAS size: 64
CPU 14 Bimodal branch predictor
Basic BTB sets: 1024 ways: 8 indirect buffer size: 4096 RAS size: 64
CPU 15 Bimodal branch predictor
Basic BTB sets: 1024 ways: 8 indirect buffer size: 4096 RAS size: 64
CPU 16 Bimodal branch predictor
Basic BTB sets: 1024 ways: 8 indirect buffer size: 4096 RAS size: 64
CPU 17 Bimodal branch predictor
Basic BTB sets: 1024 ways: 8 indirect buffer size: 4096 RAS size: 64
CPU 18 Bimodal branch predictor
Basic BTB sets: 1024 ways: 8 indirect buffer size: 4096 RAS size: 64
CPU 19 Bimodal branch predictor
Basic BTB sets: 1024 ways: 8 indirect buffer size: 4096 RAS size: 64
CPU 20 Bimodal branch predictor
Basic BTB sets: 1024 ways: 8 indirect buffer size: 4096 RAS size: 64
CPU 21 Bimodal branch predictor
Basic BTB sets: 1024 ways: 8 indirect buffer size: 4096 RAS size: 64
CPU 22 Bimodal branch predictor
Basic BTB sets: 1024 ways: 8 indirect buffer size: 4096 RAS size: 64
CPU 23 Bimodal branch predictor
Basic BTB sets: 1024 ways: 8 indirect buffer size: 4096 RAS size: 64
CPU 24 Bimodal branch predictor
Basic BTB sets: 1024 ways: 8 indirect buffer size: 4096 RAS size: 64
CPU 25 Bimodal branch predictor
Basic BTB sets: 1024 ways: 8 indirect buffer size: 4096 RAS size: 64
CPU 26 Bimodal branch predictor
Basic BTB sets: 1024 ways: 8 indirect buffer size: 4096 RAS size: 64
CPU 27 Bimodal branch predictor
Basic BTB sets: 1024 ways: 8 indirect buffer size: 4096 RAS size: 64
CPU 28 Bimodal branch predictor
Basic BTB sets: 1024 ways: 8 indirect buffer size: 4096 RAS size: 64
CPU 29 Bimodal branch predictor
Basic BTB sets: 1024 ways: 8 indirect buffer size: 4096 RAS size: 64
CPU 30 Bimodal branch predictor
Basic BTB sets: 1024 ways: 8 indirect buffer size: 4096 RAS size: 64
CPU 31 Bimodal branch predictor
Basic BTB sets: 1024 ways: 8 indirect buffer size: 4096 RAS size: 64
CPU 32 Bimodal branch predictor
Basic BTB sets: 1024 ways: 8 indirect buffer size: 4096 RAS size: 64
CPU 33 Bimodal branch predictor
Basic BTB sets: 1024 ways: 8 indirect buffer size: 4096 RAS size: 64
CPU 34 Bimodal branch predictor
Basic BTB sets: 1024 ways: 8 indirect buffer size: 4096 RAS size: 64
CPU 35 Bimodal branch predictor
Basic BTB sets: 1024 ways: 8 indirect buffer size: 4096 RAS size: 64
CPU 36 Bimodal branch predictor
Basic BTB sets: 1024 ways: 8 indirect buffer size: 4096 RAS size: 64
CPU 37 Bimodal branch predictor
Basic BTB sets: 1024 ways: 8 indirect buffer size: 4096 RAS size: 64
CPU 38 Bimodal branch predictor
Basic BTB sets: 1024 ways: 8 indirect buffer size: 4096 RAS size: 64
CPU 39 Bimodal branch predictor
Basic BTB sets: 1024 ways: 8 indirect buffer size: 4096 RAS size: 64
CPU 40 Bimodal branch predictor
Basic BTB sets: 1024 ways: 8 indirect buffer size: 4096 RAS size: 64
CPU 41 Bimodal branch predictor
Basic BTB sets: 1024 ways: 8 indirect buffer size: 4096 RAS size: 64
CPU 42 Bimodal branch predictor
Basic BTB sets: 1024 ways: 8 indirect buffer size: 4096 RAS size: 64
CPU 43 Bimodal branch predictor
Basic BTB sets: 1024 ways: 8 indirect buffer size: 4096 RAS size: 64
CPU 44 Bimodal branch predictor
Basic BTB sets: 1024 ways: 8 indirect buffer size: 4096 RAS size: 64
CPU 45 Bimodal branch predictor
Basic BTB sets: 1024 ways: 8 indirect buffer size: 4096 RAS size: 64
CPU 46 Bimodal branch predictor
Basic BTB sets: 1024 ways: 8 indirect buffer size: 4096 RAS size: 64
CPU 47 Bimodal branch predictor
Basic BTB sets: 1024 ways: 8 indirect buffer size: 4096 RAS size: 64
CPU 48 Bimodal branch predictor
Basic BTB sets: 1024 ways: 8 indirect buffer size: 4096 RAS size: 64
CPU 49 Bimodal branch predictor
Basic BTB sets: 1024 ways: 8 indirect buffer size: 4096 RAS size: 64
CPU 50 Bimodal branch predictor
Basic BTB sets: 1024 ways: 8 indirect buffer size: 4096 RAS size: 64
CPU 51 Bimodal branch predictor
Basic BTB sets: 1024 ways: 8 indirect buffer size: 4096 RAS size: 64
CPU 52 Bimodal branch predictor
Basic BTB sets: 1024 ways: 8 indirect buffer size: 4096 RAS size: 64
CPU 53 Bimodal branch predictor
Basic BTB sets: 1024 ways: 8 indirect buffer size: 4096 RAS size: 64
CPU 54 Bimodal branch predictor
Basic BTB sets: 1024 ways: 8 indirect buffer size: 4096 RAS size: 64
CPU 55 Bimodal branch predictor
Basic BTB sets: 1024 ways: 8 indirect buffer size: 4096 RAS size: 64
CPU 56 Bimodal branch predictor
Basic BTB sets: 1024 ways: 8 indirect buffer size: 4096 RAS size: 64
CPU 57 Bimodal branch predictor
Basic BTB sets: 1024 ways: 8 indirect buffer size: 4096 RAS size: 64
CPU 58 Bimodal branch predictor
Basic BTB sets: 1024 ways: 8 indirect buffer size: 4096 RAS size: 64
CPU 59 Bimodal branch predictor
Basic BTB sets: 1024 ways: 8 indirect buffer size: 4096 RAS size: 64
CPU 60 Bimodal branch predictor
Basic BTB sets: 1024 ways: 8 indirect buffer size: 4096 RAS size: 64
CPU 61 Bimodal branch predictor
Basic BTB sets: 1024 ways: 8 indirect buffer size: 4096 RAS size: 64
CPU 62 Bimodal branch predictor
Basic BTB sets: 1024 ways: 8 indirect buffer size: 4096 RAS size: 64
CPU 63 Bimodal branch predictor
Basic BTB sets: 1024 ways: 8 indirect buffer size: 4096 RAS size: 64

Warmup complete CPU 0 instructions: 5 cycles: 40 (Simulation time: 0 hr 0 min 1 sec) 
Warmup complete CPU 1 instructions: 5 cycles: 40 (Simulation time: 0 hr 0 min 1 sec) 
Warmup complete CPU 2 instructions: 5 cycles: 40 (Simulation time: 0 hr 0 min 1 sec) 
Warmup complete CPU 3 instructions: 5 cycles: 40 (Simulation time: 0 hr 0 min 1 sec) 
Warmup complete CPU 4 instructions: 5 cycles: 40 (Simulation time: 0 hr 0 min 1 sec) 
Warmup complete CPU 5 instructions: 5 cycles: 40 (Simulation time: 0 hr 0 min 1 sec) 
Warmup complete CPU 6 instructions: 5 cycles: 40 (Simulation time: 0 hr 0 min 1 sec) 
Warmup complete CPU 7 instructions: 5 cycles: 40 (Simulation time: 0 hr 0 min 1 sec) 
Warmup complete CPU 8 instructions: 5 cycles: 40 (Simulation time: 0 hr 0 min 1 sec) 
Warmup complete CPU 9 instructions: 5 cycles: 40 (Simulation time: 0 hr 0 min 1 sec) 
Warmup complete CPU 10 instructions: 5 cycles: 40 (Simulation time: 0 hr 0 min 1 sec) 
Warmup complete CPU 11 instructions: 5 cycles: 40 (Simulation time: 0 hr 0 min 1 sec) 
Warmup complete CPU 12 instructions: 5 cycles: 40 (Simulation time: 0 hr 0 min 1 sec) 
Warmup complete CPU 13 instructions: 5 cycles: 40 (Simulation time: 0 hr 0 min 1 sec) 
Warmup complete CPU 14 instructions: 5 cycles: 40 (Simulation time: 0 hr 0 min 1 sec) 
Warmup complete CPU 15 instructions: 5 cycles: 40 (Simulation time: 0 hr 0 min 1 sec) 
Warmup complete CPU 16 instructions: 5 cycles: 40 (Simulation time: 0 hr 0 min 1 sec) 
Warmup complete CPU 17 instructions: 5 cycles: 40 (Simulation time: 0 hr 0 min 1 sec) 
Warmup complete CPU 18 instructions: 5 cycles: 40 (Simulation time: 0 hr 0 min 1 sec) 
Warmup complete CPU 19 instructions: 5 cycles: 40 (Simulation time: 0 hr 0 min 1 sec) 
Warmup complete CPU 20 instructions: 5 cycles: 40 (Simulation time: 0 hr 0 min 1 sec) 
Warmup complete CPU 21 instructions: 5 cycles: 40 (Simulation time: 0 hr 0 min 1 sec) 
Warmup complete CPU 22 instructions: 5 cycles: 40 (Simulation time: 0 hr 0 min 1 sec) 
Warmup complete CPU 23 instructions: 5 cycles: 40 (Simulation time: 0 hr 0 min 1 sec) 
Warmup complete CPU 24 instructions: 5 cycles: 40 (Simulation time: 0 hr 0 min 1 sec) 
Warmup complete CPU 25 instructions: 5 cycles: 40 (Simulation time: 0 hr 0 min 1 sec) 
Warmup complete CPU 26 instructions: 5 cycles: 40 (Simulation time: 0 hr 0 min 1 sec) 
Warmup complete CPU 27 instructions: 5 cycles: 40 (Simulation time: 0 hr 0 min 1 sec) 
Warmup complete CPU 28 instructions: 5 cycles: 40 (Simulation time: 0 hr 0 min 1 sec) 
Warmup complete CPU 29 instructions: 5 cycles: 40 (Simulation time: 0 hr 0 min 1 sec) 
Warmup complete CPU 30 instructions: 5 cycles: 40 (Simulation time: 0 hr 0 min 1 sec) 
Warmup complete CPU 31 instructions: 5 cycles: 40 (Simulation time: 0 hr 0 min 1 sec) 
Warmup complete CPU 32 instructions: 5 cycles: 40 (Simulation time: 0 hr 0 min 1 sec) 
Warmup complete CPU 33 instructions: 5 cycles: 40 (Simulation time: 0 hr 0 min 1 sec) 
Warmup complete CPU 34 instructions: 5 cycles: 40 (Simulation time: 0 hr 0 min 1 sec) 
Warmup complete CPU 35 instructions: 5 cycles: 40 (Simulation time: 0 hr 0 min 1 sec) 
Warmup complete CPU 36 instructions: 5 cycles: 40 (Simulation time: 0 hr 0 min 1 sec) 
Warmup complete CPU 37 instructions: 5 cycles: 40 (Simulation time: 0 hr 0 min 1 sec) 
Warmup complete CPU 38 instructions: 5 cycles: 40 (Simulation time: 0 hr 0 min 1 sec) 
Warmup complete CPU 39 instructions: 5 cycles: 40 (Simulation time: 0 hr 0 min 1 sec) 
Warmup complete CPU 40 instructions: 5 cycles: 40 (Simulation time: 0 hr 0 min 1 sec) 
Warmup complete CPU 41 instructions: 5 cycles: 40 (Simulation time: 0 hr 0 min 1 sec) 
Warmup complete CPU 42 instructions: 5 cycles: 40 (Simulation time: 0 hr 0 min 1 sec) 
Warmup complete CPU 43 instructions: 5 cycles: 40 (Simulation time: 0 hr 0 min 1 sec) 
Warmup complete CPU 44 instructions: 5 cycles: 40 (Simulation time: 0 hr 0 min 1 sec) 
Warmup complete CPU 45 instructions: 5 cycles: 40 (Simulation time: 0 hr 0 min 1 sec) 
Warmup complete CPU 46 instructions: 5 cycles: 40 (Simulation time: 0 hr 0 min 1 sec) 
Warmup complete CPU 47 instructions: 5 cycles: 40 (Simulation time: 0 hr 0 min 1 sec) 
Warmup complete CPU 48 instructions: 5 cycles: 40 (Simulation time: 0 hr 0 min 1 sec) 
Warmup complete CPU 49 instructions: 5 cycles: 40 (Simulation time: 0 hr 0 min 1 sec) 
Warmup complete CPU 50 instructions: 5 cycles: 40 (Simulation time: 0 hr 0 min 1 sec) 
Warmup complete CPU 51 instructions: 5 cycles: 40 (Simulation time: 0 hr 0 min 1 sec) 
Warmup complete CPU 52 instructions: 5 cycles: 40 (Simulation time: 0 hr 0 min 1 sec) 
Warmup complete CPU 53 instructions: 5 cycles: 40 (Simulation time: 0 hr 0 min 1 sec) 
Warmup complete CPU 54 instructions: 5 cycles: 40 (Simulation time: 0 hr 0 min 1 sec) 
Warmup complete CPU 55 instructions: 5 cycles: 40 (Simulation time: 0 hr 0 min 1 sec) 
Warmup complete CPU 56 instructions: 5 cycles: 40 (Simulation time: 0 hr 0 min 1 sec) 
Warmup complete CPU 57 instructions: 5 cycles: 40 (Simulation time: 0 hr 0 min 1 sec) 
Warmup complete CPU 58 instructions: 5 cycles: 40 (Simulation time: 0 hr 0 min 1 sec) 
Warmup complete CPU 59 instructions: 5 cycles: 40 (Simulation time: 0 hr 0 min 1 sec) 
Warmup complete CPU 60 instructions: 4 cycles: 40 (Simulation time: 0 hr 0 min 1 sec) 
Warmup complete CPU 61 instructions: 5 cycles: 40 (Simulation time: 0 hr 0 min 1 sec) 
Warmup complete CPU 62 instructions: 5 cycles: 40 (Simulation time: 0 hr 0 min 1 sec) 
Warmup complete CPU 63 instructions: 5 cycles: 40 (Simulation time: 0 hr 0 min 1 sec) 

Finished CPU 0 instructions: 5000001 cycles: 465878759 cumulative IPC: 0.0107324 (Simulation time: 93 hr 52 min 43 sec) 
Finished CPU 55 instructions: 5000001 cycles: 465878790 cumulative IPC: 0.0107324 (Simulation time: 93 hr 52 min 43 sec) 
Finished CPU 41 instructions: 5000001 cycles: 465878791 cumulative IPC: 0.0107324 (Simulation time: 93 hr 52 min 43 sec) 
Finished CPU 43 instructions: 5000001 cycles: 465878791 cumulative IPC: 0.0107324 (Simulation time: 93 hr 52 min 43 sec) 
Finished CPU 53 instructions: 5000001 cycles: 465878791 cumulative IPC: 0.0107324 (Simulation time: 93 hr 52 min 43 sec) 
Finished CPU 63 instructions: 5000001 cycles: 465878791 cumulative IPC: 0.0107324 (Simulation time: 93 hr 52 min 43 sec) 
Finished CPU 49 instructions: 5000001 cycles: 465878827 cumulative IPC: 0.0107324 (Simulation time: 93 hr 52 min 43 sec) 
Finished CPU 33 instructions: 5000001 cycles: 465879127 cumulative IPC: 0.0107324 (Simulation time: 93 hr 52 min 43 sec) 
Finished CPU 50 instructions: 5000001 cycles: 465879887 cumulative IPC: 0.0107324 (Simulation time: 93 hr 52 min 43 sec) 
Finished CPU 16 instructions: 5000001 cycles: 465880037 cumulative IPC: 0.0107324 (Simulation time: 93 hr 52 min 43 sec) 
Finished CPU 40 instructions: 5000001 cycles: 465880642 cumulative IPC: 0.0107324 (Simulation time: 93 hr 52 min 44 sec) 
Finished CPU 15 instructions: 5000001 cycles: 465880791 cumulative IPC: 0.0107324 (Simulation time: 93 hr 52 min 44 sec) 
Finished CPU 14 instructions: 5000001 cycles: 465881247 cumulative IPC: 0.0107324 (Simulation time: 93 hr 52 min 44 sec) 
Finished CPU 13 instructions: 5000001 cycles: 465881701 cumulative IPC: 0.0107323 (Simulation time: 93 hr 52 min 44 sec) 
Finished CPU 12 instructions: 5000001 cycles: 465882003 cumulative IPC: 0.0107323 (Simulation time: 93 hr 52 min 44 sec) 
Finished CPU 37 instructions: 5000001 cycles: 465882153 cumulative IPC: 0.0107323 (Simulation time: 93 hr 52 min 44 sec) 
Finished CPU 52 instructions: 5000001 cycles: 465883063 cumulative IPC: 0.0107323 (Simulation time: 93 hr 52 min 45 sec) 
Finished CPU 38 instructions: 5000001 cycles: 465883364 cumulative IPC: 0.0107323 (Simulation time: 93 hr 52 min 45 sec) 
Finished CPU 11 instructions: 5000001 cycles: 465883667 cumulative IPC: 0.0107323 (Simulation time: 93 hr 52 min 45 sec) 
Finished CPU 60 instructions: 5000000 cycles: 465884121 cumulative IPC: 0.0107323 (Simulation time: 93 hr 52 min 45 sec) 
Finished CPU 36 instructions: 5000001 cycles: 465884273 cumulative IPC: 0.0107323 (Simulation time: 93 hr 52 min 45 sec) 
Finished CPU 10 instructions: 5000001 cycles: 465884423 cumulative IPC: 0.0107323 (Simulation time: 93 hr 52 min 45 sec) 
Finished CPU 42 instructions: 5000001 cycles: 465884876 cumulative IPC: 0.0107323 (Simulation time: 93 hr 52 min 45 sec) 
Finished CPU 22 instructions: 5000001 cycles: 465885180 cumulative IPC: 0.0107323 (Simulation time: 93 hr 52 min 45 sec) 
Finished CPU 9 instructions: 5000001 cycles: 465885181 cumulative IPC: 0.0107323 (Simulation time: 93 hr 52 min 45 sec) 
Finished CPU 45 instructions: 5000001 cycles: 465885181 cumulative IPC: 0.0107323 (Simulation time: 93 hr 52 min 45 sec) 
Finished CPU 29 instructions: 5000001 cycles: 465885331 cumulative IPC: 0.0107323 (Simulation time: 93 hr 52 min 46 sec) 
Finished CPU 7 instructions: 5000001 cycles: 465885483 cumulative IPC: 0.0107323 (Simulation time: 93 hr 52 min 46 sec) 
Finished CPU 17 instructions: 5000001 cycles: 465885639 cumulative IPC: 0.0107323 (Simulation time: 93 hr 52 min 46 sec) 
Finished CPU 31 instructions: 5000001 cycles: 465885789 cumulative IPC: 0.0107322 (Simulation time: 93 hr 52 min 46 sec) 
Finished CPU 54 instructions: 5000001 cycles: 465885793 cumulative IPC: 0.0107322 (Simulation time: 93 hr 52 min 46 sec) 
Finished CPU 39 instructions: 5000001 cycles: 465885938 cumulative IPC: 0.0107322 (Simulation time: 93 hr 52 min 46 sec) 
Finished CPU 35 instructions: 5000001 cycles: 465885942 cumulative IPC: 0.0107322 (Simulation time: 93 hr 52 min 46 sec) 
Finished CPU 56 instructions: 5000001 cycles: 465886092 cumulative IPC: 0.0107322 (Simulation time: 93 hr 52 min 46 sec) 
Finished CPU 59 instructions: 5000001 cycles: 465886097 cumulative IPC: 0.0107322 (Simulation time: 93 hr 52 min 46 sec) 
Finished CPU 23 instructions: 5000001 cycles: 465886395 cumulative IPC: 0.0107322 (Simulation time: 93 hr 52 min 46 sec) 
Finished CPU 30 instructions: 5000001 cycles: 465886396 cumulative IPC: 0.0107322 (Simulation time: 93 hr 52 min 46 sec) 
Finished CPU 34 instructions: 5000001 cycles: 465886848 cumulative IPC: 0.0107322 (Simulation time: 93 hr 52 min 46 sec) 
Finished CPU 51 instructions: 5000001 cycles: 465886999 cumulative IPC: 0.0107322 (Simulation time: 93 hr 52 min 46 sec) 
Finished CPU 24 instructions: 5000001 cycles: 465887151 cumulative IPC: 0.0107322 (Simulation time: 93 hr 52 min 46 sec) 
Finished CPU 8 instructions: 5000001 cycles: 465887155 cumulative IPC: 0.0107322 (Simulation time: 93 hr 52 min 46 sec) 
Finished CPU 28 instructions: 5000001 cycles: 465887305 cumulative IPC: 0.0107322 (Simulation time: 93 hr 52 min 46 sec) 
Finished CPU 62 instructions: 5000001 cycles: 465887453 cumulative IPC: 0.0107322 (Simulation time: 93 hr 52 min 46 sec) 
Finished CPU 32 instructions: 5000001 cycles: 465887459 cumulative IPC: 0.0107322 (Simulation time: 93 hr 52 min 46 sec) 
Finished CPU 57 instructions: 5000001 cycles: 465887613 cumulative IPC: 0.0107322 (Simulation time: 93 hr 52 min 46 sec) 
Finished CPU 18 instructions: 5000001 cycles: 465888066 cumulative IPC: 0.0107322 (Simulation time: 93 hr 52 min 46 sec) 
Finished CPU 21 instructions: 5000001 cycles: 465888367 cumulative IPC: 0.0107322 (Simulation time: 93 hr 52 min 47 sec) 
Finished CPU 47 instructions: 5000001 cycles: 465888519 cumulative IPC: 0.0107322 (Simulation time: 93 hr 52 min 47 sec) 
Finished CPU 27 instructions: 5000001 cycles: 465888671 cumulative IPC: 0.0107322 (Simulation time: 93 hr 52 min 47 sec) 
Finished CPU 46 instructions: 5000001 cycles: 465888824 cumulative IPC: 0.0107322 (Simulation time: 93 hr 52 min 47 sec) 
Finished CPU 3 instructions: 5000001 cycles: 465888975 cumulative IPC: 0.0107322 (Simulation time: 93 hr 52 min 47 sec) 
Finished CPU 61 instructions: 5000001 cycles: 465889128 cumulative IPC: 0.0107322 (Simulation time: 93 hr 52 min 47 sec) 
Finished CPU 19 instructions: 5000001 cycles: 465889281 cumulative IPC: 0.0107322 (Simulation time: 93 hr 52 min 47 sec) 
Finished CPU 48 instructions: 5000001 cycles: 465890642 cumulative IPC: 0.0107321 (Simulation time: 93 hr 52 min 47 sec) 
Finished CPU 58 instructions: 5000001 cycles: 465890793 cumulative IPC: 0.0107321 (Simulation time: 93 hr 52 min 47 sec) 
Finished CPU 25 instructions: 5000001 cycles: 465892005 cumulative IPC: 0.0107321 (Simulation time: 93 hr 52 min 47 sec) 
Finished CPU 20 instructions: 5000001 cycles: 465892157 cumulative IPC: 0.0107321 (Simulation time: 93 hr 52 min 47 sec) 
Finished CPU 44 instructions: 5000001 cycles: 465892762 cumulative IPC: 0.0107321 (Simulation time: 93 hr 52 min 48 sec) 
Finished CPU 26 instructions: 5000001 cycles: 465894579 cumulative IPC: 0.010732 (Simulation time: 93 hr 52 min 48 sec) 
Finished CPU 6 instructions: 5000001 cycles: 466188459 cumulative IPC: 0.0107253 (Simulation time: 93 hr 53 min 51 sec) 
Finished CPU 5 instructions: 5000001 cycles: 469693957 cumulative IPC: 0.0106452 (Simulation time: 94 hr 6 min 11 sec) 
Finished CPU 1 instructions: 5000001 cycles: 470817380 cumulative IPC: 0.0106198 (Simulation time: 94 hr 10 min 2 sec) 
Finished CPU 4 instructions: 5000001 cycles: 471089115 cumulative IPC: 0.0106137 (Simulation time: 94 hr 10 min 56 sec) 
Finished CPU 2 instructions: 5000001 cycles: 471181055 cumulative IPC: 0.0106116 (Simulation time: 94 hr 11 min 14 sec) 

ChampSim completed all CPUs

Total Simulation Statistics (not including warmup)

CPU 0 cumulative IPC: 5.70666e-319 instructions: 5000001 cycles: 465878759
